6
0  1  0  1  0  1   3   3 -2.61682 -2.11103 -2.11587 -2.62166 -2.17628 -2.44780 -0.31200 -0.32671 -0.35999 -1.97504 -13.82094 20.75955 -5.13108 -3.78256
O	 -1.885886008	 1.005713574	 0.000000000
H	 -2.440617168	 0.801399263	 -0.755973872
H	 -2.440343497	 0.800832939	 0.756032557
O	 0.581748483	 0.095405224	 0.000145993
H	 0.908768267	 0.995976391	 0.000000000
H	 -0.377177202	 0.201142715	 0.000000000
