6
0  1  0  1  0  1   3   3 -2.58583 -2.08201 -2.13347 -2.63729 -2.18421 -2.45909 -0.09544 -0.11033 -0.14101 -1.84860 -13.54866 20.30081 -4.86623 -3.73452
O	 -1.903511969	 -1.005713574	 0.000000000
H	 -2.003936165	 -1.588282007	 -0.755973872
H	 -2.003308878	 -1.588328163	 0.756032557
O	 0.578223291	 -0.306880206	 0.000145993
H	 0.905243075	 0.593690961	 0.000000000
H	 -0.380702394	 -0.201142715	 0.000000000
