6
0  1  0  1  0  1   3   3 -4.24916 -3.92014 -3.90825 -4.23727 -3.94128 -4.12726 -2.59427 -2.59965 -2.63485 -3.80119 -8.55621  9.56253 -2.42735 -2.38017
O	 -1.903511969	 -1.005713574	 0.000000000
H	 -2.003936165	 -1.588282007	 -0.755973872
H	 -2.003308878	 -1.588328163	 0.756032557
O	 0.768574488	 -0.206308848	 0.000145993
H	 1.095594272	 0.694262319	 0.000000000
H	 -0.190351197	 -0.100571357	 0.000000000
