6
0  1  0  1  0  1   3   3 -3.72163 -3.59618 -3.57247 -3.69792 -3.58376 -3.65443 -3.04629 -3.04055 -3.05162 -3.62095 -4.01474  2.06584 -0.67062 -1.00143
O	 -1.903511969	 -1.005713574	 0.000000000
H	 -2.003936165	 -1.588282007	 -0.755973872
H	 -2.003308878	 -1.588328163	 0.756032557
O	 1.149276882	 -0.005166134	 0.000145993
H	 1.476296666	 0.895405033	 0.000000000
H	 0.190351197	 0.100571357	 0.000000000
