6
0  1  0  1  0  1   3   3 -4.28662 -4.03757 -3.99505 -4.24409 -4.02096 -4.16245 -3.07878 -3.07699 -3.10659 -4.01227 -6.74540  6.26847 -1.68906 -1.84628
O	 -1.923358963	 0.000000000	 1.005713574
H	 -2.628923577	 -0.454306964	 0.540148057
H	 -1.872469884	 -0.454660580	 1.849323951
O	 0.862757737	 -0.105737491	 0.050431672
H	 1.189777521	 0.794833676	 0.050285679
H	 -0.096167948	 0.000000000	 0.050285679
