6
0  1  0  1  0  1   3   3 -4.64641 -4.25464 -4.27137 -4.66314 -4.31722 -4.53335 -2.83886 -2.85023 -2.88849 -4.09954 -10.78194 13.33984 -3.75702 -2.90041
O	 2.268880784	 0.026340101	 0.000508029
H	 2.645502399	 -0.412039965	 0.766632411
H	 2.641145101	 -0.449872874	 -0.744894473
O	 -0.501060082	 -0.057638396	 0.009471165
H	 -0.821057252	 0.845197643	 -0.011959811
H	 0.458657034	 0.040543357	 0.004747902
