6
0  1  0  1  0  1   3   3 -4.69805 -4.38765 -4.40546 -4.71587 -4.44252 -4.61652 -3.31860 -3.32257 -3.36042 -4.22517 -7.91361  8.46180 -2.52574 -2.24762
O	 -0.002127131	 0.000000000	 0.000000000
H	 0.552604028	 -0.204314312	 0.755973872
H	 0.552330357	 -0.204880636	 -0.756032557
O	 -2.869887834	 -0.105737491	 -0.000145993
H	 -3.196907617	 0.794833676	 0.000000000
H	 -1.910962148	 0.000000000	 0.000000000
