6
0  1  0  1  0  1   3   3 -3.66144 -3.31172 -3.30398 -3.65370 -3.34672 -3.53917 -1.94306 -1.94598 -1.98149 -3.10093 -8.25213 10.70455 -2.93673 -2.61661
O	 0.052691135	 0.000000000	 0.000000000
H	 0.758255748	 -0.454306964	 0.465565518
H	 0.001802055	 -0.454660580	 -0.843610376
O	 -2.763941007	 -0.105737491	 -0.000145993
H	 -3.090960790	 0.794833676	 0.000000000
H	 -1.805015321	 0.000000000	 0.000000000
