6
0  1  0  1  0  1   3   3 -4.39661 -4.01807 -4.06130 -4.43984 -4.10682 -4.31573 -2.70370 -2.71217 -2.75100 -3.79270 -9.64010 12.10361 -3.48517 -2.77104
O	 -0.002127131	 0.000000000	 0.000000000
H	 0.552604028	 -0.204314312	 0.755973872
H	 0.552330357	 -0.204880636	 -0.756032557
O	 -2.769422833	 -0.105737491	 -0.000145993
H	 -3.096442616	 0.794833676	 0.000000000
H	 -1.810497147	 0.000000000	 0.000000000
