6
0  1  0  1  0  1   3   3  4.72218  5.57607  5.25744  4.40354  5.16246  4.70839  8.31816  8.28170  8.24538  5.57268 -23.66164 49.41197 -13.61755 -6.56011
O	 -0.002127131	 0.000000000	 0.000000000
H	 0.552604028	 -0.204314312	 0.755973872
H	 0.552330357	 -0.204880636	 -0.756032557
O	 -2.367562830	 -0.105737491	 -0.000145993
H	 -2.694582613	 0.794833676	 0.000000000
H	 -1.408637144	 0.000000000	 0.000000000
