6
0  1  0  1  0  1   3   3 -4.28616 -4.03714 -3.99459 -4.24361 -4.02050 -4.16198 -3.07865 -3.07685 -3.10646 -4.01184 -6.74379  6.26665 -1.68878 -1.84592
O	 -1.923430435	 0.000000000	 -1.005713574
H	 -1.873021177	 -0.454306964	 -1.849533213
H	 -2.628573913	 -0.454660580	 -0.539837151
O	 0.862754163	 -0.105737491	 -0.050139686
H	 1.189773947	 0.794833676	 -0.050285679
H	 -0.096171522	 0.000000000	 -0.050285679
