6
0  1  0  1  0  1   3   3 -3.93529 -3.65228 -3.62796 -3.91096 -3.66207 -3.82003 -2.53461 -2.53339 -2.56673 -3.50406 -6.71311  7.43649 -2.11269 -2.11475
O	 0.052616200	 0.000000000	 0.000000000
H	 0.002206941	 -0.454306964	 0.843819638
H	 0.757759677	 -0.454660580	 -0.465876424
O	 -2.867150668	 -0.105737491	 -0.000145993
H	 -3.194170451	 0.794833676	 0.000000000
H	 -1.908224982	 0.000000000	 0.000000000
