6
0  1  0  1  0  1   3   3 -1.59093 -1.06680 -1.13355 -1.65768 -1.19735 -1.47531  0.94441  0.93084  0.90278 -0.74559 -12.96804 22.05119 -5.80399 -4.02475
O	 0.052616200	 0.000000000	 0.000000000
H	 0.002206941	 -0.454306964	 0.843819638
H	 0.757759677	 -0.454660580	 -0.465876424
O	 -2.557544165	 -0.105737491	 -0.000145993
H	 -2.884563948	 0.794833676	 0.000000000
H	 -1.598618479	 0.000000000	 0.000000000
