6
0  1  0  1  0  1   3   3 -4.47857 -4.31508 -4.29117 -4.45466 -4.30650 -4.40056 -3.69001 -3.68356 -3.70349 -4.32713 -5.20161  3.25488 -1.10028 -1.28012
O	 2.268880784	 0.026340101	 0.000508029
H	 2.645502399	 -0.412039965	 0.766632411
H	 2.641145101	 -0.449872874	 -0.744894473
O	 -0.903332026	 -0.054482116	 0.010413359
H	 -1.223329196	 0.848353921	 -0.011017617
H	 0.056385090	 0.043699636	 0.005690096
