6
0  1  0  1  0  1   3   3 -3.79580 -3.61765 -3.58355 -3.76170 -3.60359 -3.70388 -2.88695 -2.87947 -2.90054 -3.56648 -4.61839  3.56118 -1.11753 -1.39173
O	 0.052616200	 0.000000000	 0.000000000
H	 0.002206941	 -0.454306964	 0.843819638
H	 0.757759677	 -0.454660580	 -0.465876424
O	 -3.073555002	 -0.105737491	 -0.000145993
H	 -3.400574785	 0.794833676	 0.000000000
H	 -2.114629316	 0.000000000	 0.000000000
