6
0  1  0  1  0  1   3   3 -2.13788 -1.57716 -1.71606 -2.27677 -1.78386 -2.08204  0.35971  0.33860  0.30726 -1.26176 -14.82795 24.58386 -6.78114 -4.23653
O	 -0.002127131	 0.000000000	 0.000000000
H	 0.552604028	 -0.204314312	 0.755973872
H	 0.552330357	 -0.204880636	 -0.756032557
O	 -2.568492831	 -0.105737491	 -0.000145993
H	 -2.895512614	 0.794833676	 0.000000000
H	 -1.609567145	 0.000000000	 0.000000000
