6
0  1  0  1  0  1   3   3 -3.81109 -3.68371 -3.64179 -3.76917 -3.65408 -3.72456 -3.21149 -3.20052 -3.20987 -3.72277 -4.20362  2.25363 -0.73848 -1.03432
O	 -1.885886008	 1.005713574	 0.000000000
H	 -2.440617168	 0.801399263	 -0.755973872
H	 -2.440343497	 0.800832939	 0.756032557
O	 1.147514286	 -0.206308848	 0.000145993
H	 1.474534070	 0.694262319	 0.000000000
H	 0.188588601	 -0.100571357	 0.000000000
