6
0  1  0  1  0  1   3   3 -3.94340 -3.71741 -3.68526 -3.91124 -3.71186 -3.83888 -2.81072 -2.80605 -2.83389 -3.62344 -5.53183  5.15174 -1.53038 -1.71296
O	 0.052616200	 0.000000000	 0.000000000
H	 0.002206941	 -0.454306964	 0.843819638
H	 0.757759677	 -0.454660580	 -0.465876424
O	 -2.970352835	 -0.105737491	 -0.000145993
H	 -3.297372618	 0.794833676	 -0.000000000
H	 -2.011427149	 -0.000000000	 -0.000000000
