6
0  1  0  1  0  1   3   3 -4.21660 -3.90289 -3.86823 -4.18194 -3.90105 -4.07844 -2.71030 -2.71200 -2.74756 -3.83503 -8.31354  9.14181 -2.36049 -2.30281
O	 -1.923358963	 0.000000000	 1.005713574
H	 -2.628923577	 -0.454306964	 0.540148057
H	 -1.872469884	 -0.454660580	 1.849323951
O	 0.766589789	 -0.105737491	 0.100717350
H	 1.093609573	 0.794833676	 0.100571357
H	 -0.192335896	 0.000000000	 0.100571357
