6
0  1  0  1  0  1   3   3 -4.53690 -4.22914 -4.18701 -4.49477 -4.22090 -4.39304 -2.92472 -2.92510 -2.95784 -4.16694 -8.61937  9.40628 -2.59012 -2.36372
O	 0.036216727	 0.000000000	 0.000000000
H	 0.136640922	 -0.582568432	 0.755973872
H	 0.136013635	 -0.582614588	 -0.756032557
O	 -2.867970641	 -0.105737491	 -0.000145993
H	 -3.194990424	 0.794833676	 0.000000000
H	 -1.909044955	 0.000000000	 0.000000000
