6
0  1  0  1  0  1   3   3 -4.15200 -3.95657 -3.91306 -4.10849 -3.93308 -4.04376 -3.19125 -3.18670 -3.20868 -3.96274 -5.54738  4.28835 -1.21936 -1.48435
O	 -1.923430435	 0.000000000	 -1.005713574
H	 -1.873021177	 -0.454306964	 -1.849533213
H	 -2.628573913	 -0.454660580	 -0.539837151
O	 0.958925685	 -0.105737491	 0.000145993
H	 1.285945469	 0.794833676	 0.000000000
H	 0.000000000	 0.000000000	 0.000000000
