6
0  1  0  1  0  1   3   3  2.89525  3.66701  3.53564  2.76388  3.44951  3.04008  6.28982  6.26031  6.22936  3.60026 -22.68569 42.70620 -10.48614 -5.93411
O	 -1.885886008	 1.005713574	 0.000000000
H	 -2.440617168	 0.801399263	 -0.755973872
H	 -2.440343497	 0.800832939	 0.756032557
O	 0.393159883	 0.195976581	 0.000145993
H	 0.720179667	 1.096547748	 0.000000000
H	 -0.565765802	 0.301714072	 0.000000000
