6
0  1  0  1  0  1   3   3 -4.25680 -3.87634 -3.84902 -4.22948 -3.89373 -4.10145 -2.31623 -2.32253 -2.35479 -3.76769 -10.60810 13.31703 -3.56526 -2.91136
O	 0.036216727	 0.000000000	 0.000000000
H	 0.136640922	 -0.582568432	 0.755973872
H	 0.136013635	 -0.582614588	 -0.756032557
O	 -2.765588447	 -0.105737491	 -0.000145993
H	 -3.092608230	 0.794833676	 0.000000000
H	 -1.806662761	 0.000000000	 0.000000000
