6
0  1  0  1  0  1   3   3 -4.21625 -3.90259 -3.86790 -4.18156 -3.90071 -4.07808 -2.71034 -2.71205 -2.74761 -3.83473 -8.31152  9.13926 -2.36010 -2.30237
O	 -1.923430435	 0.000000000	 -1.005713574
H	 -1.873021177	 -0.454306964	 -1.849533213
H	 -2.628573913	 -0.454660580	 -0.539837151
O	 0.766582641	 -0.105737491	 -0.100425364
H	 1.093602426	 0.794833676	 -0.100571357
H	 -0.192343043	 0.000000000	 -0.100571357
