6
0  1  0  1  0  1   3   3  4.65437  5.51846  5.33017  4.46608  5.23612  4.78109  8.47762  8.44980  8.42646  5.24603 -26.68799 52.43896 -13.69987 -6.80506
O	 0.036216727	 0.000000000	 0.000000000
H	 0.136640922	 -0.582568432	 0.755973872
H	 0.136013635	 -0.582614588	 -0.756032557
O	 -2.356059672	 -0.105737491	 -0.000145993
H	 -2.683079455	 0.794833676	 0.000000000
H	 -1.397133986	 0.000000000	 0.000000000
