6
0  1  0  1  0  1   3   3 -3.90595 -3.75411 -3.71379 -3.86563 -3.72851 -3.81399 -3.14751 -3.14061 -3.15533 -3.77934 -4.62340  2.93016 -0.88891 -1.19720
O	 -1.923430435	 0.000000000	 -1.005713574
H	 -1.873021177	 -0.454306964	 -1.849533213
H	 -2.628573913	 -0.454660580	 -0.539837151
O	 1.055097207	 -0.105737491	 0.050431672
H	 1.382116991	 0.794833676	 0.050285679
H	 0.096171522	 0.000000000	 0.050285679
