6
0  1  0  1  0  1   3   3 -1.58958 -1.06555 -1.13226 -1.65629 -1.19603 -1.47395  0.94552  0.93198  0.90393 -0.74406 -12.96149 22.04318 -5.80160 -4.02416
O	 0.052691135	 0.000000000	 0.000000000
H	 0.758255748	 -0.454306964	 0.465565518
H	 0.001802055	 -0.454660580	 -0.843610376
O	 -2.557529178	 -0.105737491	 -0.000145993
H	 -2.884548961	 0.794833676	 0.000000000
H	 -1.598603492	 0.000000000	 0.000000000
