6
0  1  0  1  0  1   3   3 -2.82218 -2.33840 -2.35520 -2.83898 -2.40671 -2.67127 -0.53076 -0.54282 -0.57756 -2.18136 -13.15503 19.30396 -4.72419 -3.60611
O	 -1.923430435	 0.000000000	 -1.005713574
H	 -1.873021177	 -0.454306964	 -1.849533213
H	 -2.628573913	 -0.454660580	 -0.539837151
O	 0.574239598	 -0.105737491	 -0.200996722
H	 0.901259382	 0.794833676	 -0.201142715
H	 -0.384686087	 0.000000000	 -0.201142715
