6
0  1  0  1  0  1   3   3 -4.08475 -3.93818 -3.89360 -4.04017 -3.90272 -3.98900 -3.19920 -3.18609 -3.20223 -3.97268 -4.93385  3.27512 -1.03306 -1.28089
O	 0.036216727	 0.000000000	 0.000000000
H	 0.136640922	 -0.582568432	 0.755973872
H	 0.136013635	 -0.582614588	 -0.756032557
O	 -3.175117223	 -0.105737491	 -0.000145993
H	 -3.502137006	 0.794833676	 0.000000000
H	 -2.216191537	 0.000000000	 0.000000000
