6
0  1  0  1  0  1   3   3 -2.82198 -2.33812 -2.35498 -2.83884 -2.40649 -2.67110 -0.52998 -0.54204 -0.57678 -2.18108 -13.15827 19.30891 -4.72496 -3.60675
O	 -1.923358963	 0.000000000	 1.005713574
H	 -2.628923577	 -0.454306964	 0.540148057
H	 -1.872469884	 -0.454660580	 1.849323951
O	 0.574253892	 -0.105737491	 0.201288708
H	 0.901273676	 0.794833676	 0.201142715
H	 -0.384671793	 0.000000000	 0.201142715
