6
0  1  0  1  0  1   3   3  4.79571  5.59973  5.37494  4.57093  5.28637  4.86091  8.45560  8.42951  8.40143  5.71054 -21.16680 44.96665 -11.82933 -6.25999
O	 0.052616200	 0.000000000	 0.000000000
H	 0.002206941	 -0.454306964	 0.843819638
H	 0.757759677	 -0.454660580	 -0.465876424
O	 -2.351139830	 -0.105737491	 -0.000145993
H	 -2.678159613	 0.794833676	 0.000000000
H	 -1.392214144	 0.000000000	 0.000000000
