6
0  1  0  1  0  1   3   3 -4.09050 -3.92558 -3.87739 -4.04231 -3.89550 -3.98694 -3.32215 -3.31383 -3.32939 -3.95376 -4.95968  3.27824 -0.99708 -1.27524
O	 -1.885886008	 1.005713574	 0.000000000
H	 -2.440617168	 0.801399263	 -0.755973872
H	 -2.440343497	 0.800832939	 0.756032557
O	 1.053219985	 -0.156023170	 0.000145993
H	 1.380239769	 0.744547997	 0.000000000
H	 0.094294300	 -0.050285679	 0.000000000
