6
0  1  0  1  0  1   3   3 -3.94190 -3.71597 -3.68380 -3.90973 -3.71038 -3.83737 -2.80945 -2.80476 -2.83259 -3.62188 -5.52885  5.14920 -1.52959 -1.71264
O	 0.052691135	 0.000000000	 0.000000000
H	 0.758255748	 -0.454306964	 0.465565518
H	 0.001802055	 -0.454660580	 -0.843610376
O	 -2.970352835	 -0.105737491	 -0.000145993
H	 -3.297372618	 0.794833676	 -0.000000000
H	 -2.011427149	 -0.000000000	 -0.000000000
