6
0  1  0  1  0  1   3   3 -4.70809 -4.45567 -4.45824 -4.71067 -4.48841 -4.63085 -3.59340 -3.59390 -3.62696 -4.35070 -6.58018  5.90116 -1.84380 -1.82789
O	 -0.002127131	 0.000000000	 0.000000000
H	 0.552604028	 -0.204314312	 0.755973872
H	 0.552330357	 -0.204880636	 -0.756032557
O	 -2.970352835	 -0.105737491	 -0.000145993
H	 -3.297372618	 0.794833676	 -0.000000000
H	 -2.011427149	 -0.000000000	 -0.000000000
