6
0  1  0  1  0  1   3   3 -4.26420 -4.05659 -4.02866 -4.23628 -4.04982 -4.16773 -3.19237 -3.19170 -3.21569 -4.03501 -5.71078  4.46021 -1.25167 -1.53279
O	 -1.903511969	 -1.005713574	 0.000000000
H	 -2.003936165	 -1.588282007	 -0.755973872
H	 -2.003308878	 -1.588328163	 0.756032557
O	 0.958925685	 -0.105737491	 0.000145993
H	 1.285945469	 0.794833676	 0.000000000
H	 0.000000000	 0.000000000	 0.000000000
