6
0  1  0  1  0  1   3   3 -4.38804 -4.12093 -4.06894 -4.33605 -4.10019 -4.24944 -3.16389 -3.16195 -3.19251 -4.09478 -7.17429  6.90496 -1.87097 -1.95448
O	 -1.885886008	 1.005713574	 0.000000000
H	 -2.440617168	 0.801399263	 -0.755973872
H	 -2.440343497	 0.800832939	 0.756032557
O	 0.864631385	 -0.055451812	 0.000145993
H	 1.191651169	 0.845119355	 0.000000000
H	 -0.094294300	 0.050285679	 0.000000000
