9
0  1  0  1  0  1   3   6 -2.98181 -2.81469 -2.78601 -2.95313 -2.82536 -2.89990 -1.72412 -1.72031 -1.72190 -2.77313 -2.81605  2.10725 -0.57283 -1.49151
O	 -2.906114058	 -0.158620486	 -0.132499498
H	 -3.302834886	 0.703353732	 -0.000000000
H	 -1.962346804	 -0.000000000	 -0.000000000
O	 0.546282652	 0.000000000	 0.000000000
H	 1.299910467	 -0.376743413	 0.460258693
C	 0.306485286	 -0.795292680	 -1.158325036
H	 -0.551322655	 -0.361587352	 -1.661089726
H	 1.155811583	 -0.780082565	 -1.840844487
H	 0.068377912	 -1.827110464	 -0.900967883
