9
0  1  0  1  0  1   3   6 -4.62256 -4.41068 -4.38317 -4.59505 -4.41640 -4.52867 -3.41829 -3.41435 -3.43565 -4.48211 -5.56818  4.10413 -1.28662 -1.73145
O	 0.943767254	 -0.158620486	 0.132499498
H	 1.340488082	 0.703353732	 -0.000000000
H	 0.000000000	 0.000000000	 0.000000000
O	 -1.931008519	 1.030232072	 0.000000000
H	 -2.485303227	 0.915228449	 -0.775409628
C	 -2.650376288	 0.527234361	 1.123037590
H	 -2.007871165	 0.657083631	 1.987348554
H	 -3.575305545	 1.078805645	 1.289453625
H	 -2.876265734	 -0.533788857	 1.019213445
