9
0  1  0  1  0  1   3   6 -4.94776 -4.62044 -4.61339 -4.94071 -4.66543 -4.83767 -2.88571 -2.88658 -2.91761 -4.67988 -7.94413  8.13956 -2.10672 -2.76859
O	 0.943767254	 -0.158620486	 0.132499498
H	 1.340488082	 0.703353732	 -0.000000000
H	 0.000000000	 0.000000000	 0.000000000
O	 -1.800096348	 0.000000000	 0.932114732
H	 -2.553724163	 -0.376743413	 0.471856039
C	 -1.560298982	 -0.795292680	 2.090439768
H	 -0.702491041	 -0.361587352	 2.593204457
H	 -2.409625279	 -0.780082565	 2.772959219
H	 -1.322191608	 -1.827110464	 1.833082615
