9
0  1  0  1  0  1   3   6 -2.93764 -2.31870 -2.47725 -3.09619 -2.55944 -2.88405  0.69260  0.67354  0.63964 -2.16131 -15.93343 24.75270 -5.87911 -5.10148
O	 0.943767254	 -0.158620486	 0.132499498
H	 1.340488082	 0.703353732	 -0.000000000
H	 0.000000000	 0.000000000	 0.000000000
O	 -1.493999661	 -0.784938722	 0.000000000
H	 -1.671550956	 -1.322473831	 -0.775409628
C	 -1.418074750	 -1.659428340	 1.123037590
H	 -1.209274955	 -1.038077946	 1.987348554
H	 -2.358214122	 -2.184654931	 1.289453625
H	 -0.612146412	 -2.385565947	 1.019213445
