9
0  1  0  1  0  1   3   6 -4.26010 -4.04193 -4.02529 -4.24346 -4.06651 -4.17439 -2.62658 -2.62384 -2.63706 -4.05958 -4.56030  3.51860 -1.08999 -1.92789
O	 -2.906114058	 -0.158620486	 -0.132499498
H	 -3.302834886	 0.703353732	 -0.000000000
H	 -1.962346804	 -0.000000000	 -0.000000000
O	 0.307706577	 0.000000000	 0.000000000
H	 0.485257871	 -0.537535109	 0.775409628
C	 0.231781666	 -0.874489618	 -1.123037590
H	 0.022981871	 -0.253139225	 -1.987348554
H	 1.171921038	 -1.399716209	 -1.289453625
H	 -0.574146673	 -1.600627225	 -1.019213445
