9
0  1  0  1  0  1   3   6 -3.08493 -2.50116 -2.58991 -3.17368 -2.66894 -2.97607 -0.02422 -0.04103 -0.07736 -2.44995 -15.83872 24.44672 -6.31334 -4.74461
O	 0.943767254	 -0.158620486	 0.132499498
H	 1.340488082	 0.703353732	 -0.000000000
H	 0.000000000	 0.000000000	 0.000000000
O	 -1.471244586	 0.784938722	 0.000000000
H	 -2.025539294	 0.669935099	 -0.775409628
C	 -2.190612355	 0.281941011	 1.123037590
H	 -1.548107232	 0.411790281	 1.987348554
H	 -3.115541612	 0.833512295	 1.289453625
H	 -2.416501801	 -0.779082207	 1.019213445
