9
0  1  0  1  0  1   3   6 -4.73779 -4.32964 -4.35264 -4.76079 -4.42182 -4.62907 -1.98307 -1.99310 -2.01984 -4.25412 -8.29816 10.18019 -2.73221 -3.40393
O	 -2.906114058	 -0.158620486	 -0.132499498
H	 -3.302834886	 0.703353732	 -0.000000000
H	 -1.962346804	 -0.000000000	 -0.000000000
O	 -0.001846157	 0.000000000	 0.000000000
H	 0.175705137	 -0.537535109	 0.775409628
C	 -0.077771068	 -0.874489618	 -1.123037590
H	 -0.286570863	 -0.253139225	 -1.987348554
H	 0.862368304	 -1.399716209	 -1.289453625
H	 -0.883699407	 -1.600627225	 -1.019213445
