9
0  1  0  1  0  1   3   6  4.97458  6.05316  5.65193  4.57335  5.52161  4.96504 10.98814 10.95405 10.93424  5.72980 -27.63304 56.65028 -14.22519 -9.06225
O	 -2.906114058	 -0.158620486	 -0.132499498
H	 -3.302834886	 0.703353732	 -0.000000000
H	 -1.962346804	 -0.000000000	 -0.000000000
O	 -0.517767380	 0.000000000	 0.000000000
H	 -0.340216086	 -0.537535109	 0.775409628
C	 -0.593692291	 -0.874489618	 -1.123037590
H	 -0.802492086	 -0.253139225	 -1.987348554
H	 0.346447081	 -1.399716209	 -1.289453625
H	 -1.399620630	 -1.600627225	 -1.019213445
