9
0  1  0  1  0  1   3   6 -3.19068 -2.98283 -2.95335 -3.16119 -2.99853 -3.09473 -1.65623 -1.65357 -1.65870 -2.92290 -3.38543  3.06017 -0.77922 -1.81843
O	 -2.906114058	 -0.158620486	 -0.132499498
H	 -3.302834886	 0.703353732	 -0.000000000
H	 -1.962346804	 -0.000000000	 -0.000000000
O	 0.432254041	 0.000000000	 0.000000000
H	 1.185881856	 -0.376743413	 0.460258693
C	 0.192456675	 -0.795292680	 -1.158325036
H	 -0.665351266	 -0.361587352	 -1.661089726
H	 1.041782972	 -0.780082565	 -1.840844487
H	 -0.045650699	 -1.827110464	 -0.900967883
