9
0  1  0  1  0  1   3   6 -2.74171 -2.05654 -2.27443 -2.95959 -2.36877 -2.72345  0.82541  0.79645  0.76537 -1.96560 -19.27085 31.75841 -8.78517 -5.66801
O	 -0.134000520	 -0.053893392	 -0.284766925
H	 -0.550677359	 0.744979323	 0.041002752
H	 0.795025799	 0.056863673	 -0.043818432
O	 2.360342894	 0.045174441	 0.075181314
H	 2.728325718	 -0.526902962	 0.752709641
C	 2.825347965	 -0.426455475	 -1.186977796
H	 2.394530870	 0.224638216	 -1.940091828
H	 3.911311652	 -0.375662614	 -1.261289724
H	 2.497005347	 -1.446324972	 -1.386058430
