9
0  1  0  1  0  1   3   6  4.61662  5.49131  5.19000  4.31531  5.08131  4.62084  8.83130  8.80178  8.76000  5.29645 -24.94259 51.15303 -13.74219 -7.17180
O	 -2.906114058	 -0.158620486	 -0.132499498
H	 -3.302834886	 0.703353732	 -0.000000000
H	 -1.962346804	 -0.000000000	 -0.000000000
O	 -0.535428133	 0.000000000	 0.000000000
H	 -0.557209946	 -0.376743413	 0.882790179
C	 0.347812091	 -0.795292680	 -0.786833129
H	 0.354315114	 -0.361587352	 -1.781098942
H	 1.363554423	 -0.780082565	 -0.392554705
H	 0.005880572	 -1.827110464	 -0.864361587
