9
0  1  0  1  0  1   3   6 -5.06096 -4.72668 -4.75271 -5.08699 -4.80402 -4.98170 -2.98020 -2.98602 -3.01942 -4.71565 -8.02511  8.19642 -2.15821 -2.72875
O	 0.943767254	 -0.158620486	 0.132499498
H	 1.340488082	 0.703353732	 -0.000000000
H	 0.000000000	 0.000000000	 0.000000000
O	 -1.774124597	 -0.932114732	 0.000000000
H	 -1.951675892	 -1.469649841	 -0.775409628
C	 -1.698199686	 -1.806604350	 1.123037590
H	 -1.489399891	 -1.185253956	 1.987348554
H	 -2.638339058	 -2.331830941	 1.289453625
H	 -0.892271348	 -2.532741957	 1.019213445
