9
0  1  0  1  0  1   3   6 -5.40024 -5.03845 -5.09801 -5.45980 -5.15251 -5.34703 -3.55833 -3.56729 -3.60727 -4.90688 -9.21379 10.27288 -3.13513 -2.83084
O	 -2.906114058	 -0.158620486	 -0.132499498
H	 -3.302834886	 0.703353732	 -0.000000000
H	 -1.962346804	 -0.000000000	 -0.000000000
O	 -0.093509837	 0.000000000	 0.000000000
H	 0.460784870	 -0.115003623	 0.775409628
C	 0.625857932	 -0.502997711	 -1.123037590
H	 -0.016647191	 -0.373148441	 -1.987348554
H	 1.550787189	 0.048573573	 -1.289453625
H	 0.851747377	 -1.564020929	 -1.019213445
