9
0  1  0  1  0  1   3   6 -4.49010 -4.16779 -4.16895 -4.49126 -4.22252 -4.39402 -2.71199 -2.72034 -2.75860 -4.09724 -7.92132  8.99367 -2.61674 -2.55285
O	 -2.906114058	 -0.158620486	 -0.132499498
H	 -3.302834886	 0.703353732	 -0.000000000
H	 -1.962346804	 -0.000000000	 -0.000000000
O	 -0.025814322	 0.000000000	 0.000000000
H	 -0.047596135	 -0.376743413	 0.882790179
C	 0.857425902	 -0.795292680	 -0.786833129
H	 0.863928925	 -0.361587352	 -1.781098942
H	 1.873168234	 -0.780082565	 -0.392554705
H	 0.515494383	 -1.827110464	 -0.864361587
