9
0  1  0  1  0  1   3   6 -5.62158 -5.22654 -5.28094 -5.67597 -5.34131 -5.55204 -3.43657 -3.44856 -3.48946 -5.17092 -10.16647 11.56741 -3.41789 -3.15398
O	 -0.525329794	 -0.050971084	 -0.314516861
H	 -0.942006633	 0.747901631	 0.011252816
H	 0.403696525	 0.059785981	 -0.073568368
O	 2.262510576	 0.045905018	 0.067743830
H	 2.630493400	 -0.526172385	 0.745272157
C	 2.727515647	 -0.425724898	 -1.194415280
H	 2.296698552	 0.225368793	 -1.947529312
H	 3.813479334	 -0.374932037	 -1.268727208
H	 2.399173029	 -1.445594395	 -1.393495914
