9
0  1  0  1  0  1   3   6 -5.40026 -5.10251 -5.13819 -5.43595 -5.18364 -5.34468 -3.87320 -3.87789 -3.91386 -5.02500 -7.63605  7.25150 -2.31119 -2.32926
O	 -2.906114058	 -0.158620486	 -0.132499498
H	 -3.302834886	 0.703353732	 -0.000000000
H	 -1.962346804	 -0.000000000	 -0.000000000
O	 0.004850003	 0.000000000	 0.000000000
H	 0.559144710	 -0.115003623	 0.775409628
C	 0.724217772	 -0.502997711	 -1.123037590
H	 0.081712649	 -0.373148441	 -1.987348554
H	 1.649147029	 0.048573573	 -1.289453625
H	 0.950107217	 -1.564020929	 -1.019213445
