9
0  1  0  1  0  1   3   6 -4.30415 -4.13543 -4.10873 -4.27745 -4.13531 -4.22342 -3.32003 -3.31363 -3.32768 -4.21534 -4.68668  2.85582 -0.95941 -1.42507
O	 0.943767254	 -0.158620486	 0.132499498
H	 1.340488082	 0.703353732	 -0.000000000
H	 0.000000000	 0.000000000	 0.000000000
O	 -2.022961305	 1.079290742	 0.000000000
H	 -2.577256013	 0.964287119	 -0.775409628
C	 -2.742329074	 0.576293031	 1.123037590
H	 -2.099823951	 0.706142301	 1.987348554
H	 -3.667258331	 1.127864315	 1.289453625
H	 -2.968218520	 -0.484730187	 1.019213445
