9
0  1  0  1  0  1   3   6 -4.19328 -4.02816 -4.00706 -4.17218 -4.03759 -4.11936 -3.05544 -3.05012 -3.05951 -4.12258 -4.43664  2.66117 -0.83452 -1.51260
O	 0.943767254	 -0.158620486	 0.132499498
H	 1.340488082	 0.703353732	 -0.000000000
H	 0.000000000	 0.000000000	 0.000000000
O	 -2.084322087	 0.000000000	 1.079290742
H	 -2.837949902	 -0.376743413	 0.619032049
C	 -1.844524721	 -0.795292680	 2.237615778
H	 -0.986716780	 -0.361587352	 2.740380467
H	 -2.693851018	 -0.780082565	 2.920135229
H	 -1.606417347	 -1.827110464	 1.980258625
