9
0  1  0  1  0  1   3   6 -4.76648 -4.39098 -4.40009 -4.77559 -4.45173 -4.65623 -2.76888 -2.77691 -2.81784 -4.35741 -9.38659 10.94372 -2.99391 -2.92064
O	 0.943767254	 -0.158620486	 0.132499498
H	 1.340488082	 0.703353732	 -0.000000000
H	 0.000000000	 0.000000000	 0.000000000
O	 -1.683769852	 0.000000000	 -0.883056062
H	 -1.661988039	 -0.376743413	 -1.765846241
C	 -2.567010076	 -0.795292680	 -0.096222933
H	 -2.573513099	 -0.361587352	 0.898042880
H	 -3.582752408	 -0.780082565	 -0.490501357
H	 -2.225078557	 -1.827110464	 -0.018694475
