9
0  1  0  1  0  1   3   6  4.74137  5.69936  5.27606  4.31807  5.16360  4.65528  9.07278  9.03686  8.99063  5.45937 -27.40494 56.67347 -16.02509 -7.78407
O	 -2.906114058	 -0.158620486	 -0.132499498
H	 -3.302834886	 0.703353732	 -0.000000000
H	 -1.962346804	 -0.000000000	 -0.000000000
O	 -0.585309039	 0.000000000	 0.000000000
H	 -0.031014332	 -0.115003623	 0.775409628
C	 0.134058730	 -0.502997711	 -1.123037590
H	 -0.508446393	 -0.373148441	 -1.987348554
H	 1.058987987	 0.048573573	 -1.289453625
H	 0.359948175	 -1.564020929	 -1.019213445
