9
0  1  0  1  0  1   3   6 -4.94724 -4.67860 -4.68898 -4.95762 -4.73205 -4.87374 -3.23173 -3.23430 -3.26103 -4.70936 -6.55494  5.64228 -1.57060 -2.22611
O	 0.943767254	 -0.158620486	 0.132499498
H	 1.340488082	 0.703353732	 -0.000000000
H	 0.000000000	 0.000000000	 0.000000000
O	 -1.867499576	 -0.981173402	 0.000000000
H	 -2.045050871	 -1.518708511	 -0.775409628
C	 -1.791574665	 -1.855663020	 1.123037590
H	 -1.582774870	 -1.234312626	 1.987348554
H	 -2.731714037	 -2.380889611	 1.289453625
H	 -0.985646327	 -2.581800627	 1.019213445
