9
0  1  0  1  0  1   3   6 -4.53946 -4.33114 -4.30955 -4.51787 -4.34645 -4.45225 -3.14867 -3.14480 -3.16067 -4.42508 -5.32085  3.86843 -1.12628 -1.84638
O	 0.943767254	 -0.158620486	 0.132499498
H	 1.340488082	 0.703353732	 -0.000000000
H	 0.000000000	 0.000000000	 0.000000000
O	 -1.989580174	 0.000000000	 1.030232072
H	 -2.743207989	 -0.376743413	 0.569973379
C	 -1.749782808	 -0.795292680	 2.188557108
H	 -0.891974867	 -0.361587352	 2.691321797
H	 -2.599109105	 -0.780082565	 2.871076559
H	 -1.511675434	 -1.827110464	 1.931199955
