9
0  1  0  1  0  1   3   6 -5.28333 -4.80908 -4.90124 -5.37548 -4.97240 -5.22199 -2.69799 -2.71564 -2.75488 -4.71071 -12.46256 16.23072 -4.65117 -3.82770
O	 -0.525329794	 -0.050971084	 -0.314516861
H	 -0.942006633	 0.747901631	 0.011252816
H	 0.403696525	 0.059785981	 -0.073568368
O	 2.164678257	 0.046635595	 0.060306346
H	 2.532661081	 -0.525441808	 0.737834673
C	 2.629683328	 -0.424994321	 -1.201852764
H	 2.198866233	 0.226099370	 -1.954966796
H	 3.715647015	 -0.374201460	 -1.276164692
H	 2.301340710	 -1.444863818	 -1.400933398
