9
0  1  0  1  0  1   3   6 -4.86712 -4.60301 -4.57893 -4.84304 -4.61948 -4.76112 -3.40025 -3.39917 -3.42854 -4.65388 -6.69494  5.88880 -1.74045 -2.10728
O	 0.943767254	 -0.158620486	 0.132499498
H	 1.340488082	 0.703353732	 -0.000000000
H	 0.000000000	 0.000000000	 0.000000000
O	 -1.839055732	 0.981173402	 0.000000000
H	 -2.393350440	 0.866169779	 -0.775409628
C	 -2.558423501	 0.478175691	 1.123037590
H	 -1.915918378	 0.608024961	 1.987348554
H	 -3.483352758	 1.029746975	 1.289453625
H	 -2.784312947	 -0.582847527	 1.019213445
