9
0  1  0  1  0  1   3   6 -1.41996 -0.79930 -0.87917 -1.49983 -0.96625 -1.28914  2.54275  2.53217  2.49801 -0.54415 -10.53134 19.11808 -4.10050 -5.03039
O	 -2.906114058	 -0.158620486	 -0.132499498
H	 -3.302834886	 0.703353732	 -0.000000000
H	 -1.962346804	 -0.000000000	 -0.000000000
O	 -0.137889018	 0.000000000	 0.000000000
H	 0.615738797	 -0.376743413	 0.460258693
C	 -0.377686384	 -0.795292680	 -1.158325036
H	 -1.235494325	 -0.361587352	 -1.661089726
H	 0.471639913	 -0.780082565	 -1.840844487
H	 -0.615793758	 -1.827110464	 -0.900967883
