9
0  1  0  1  0  1   3   6  3.72727  4.67829  4.30902  3.35800  4.20130  3.69777  8.89375  8.86458  8.82665  4.59721 -26.60564 50.94094 -11.91409 -7.82400
O	 0.943767254	 -0.158620486	 0.132499498
H	 1.340488082	 0.703353732	 -0.000000000
H	 0.000000000	 0.000000000	 0.000000000
O	 -1.307249703	 -0.686821381	 0.000000000
H	 -1.484800998	 -1.224356490	 -0.775409628
C	 -1.231324792	 -1.561310999	 1.123037590
H	 -1.022524997	 -0.939960605	 1.987348554
H	 -2.171464164	 -2.086537590	 1.289453625
H	 -0.425396454	 -2.287448606	 1.019213445
