9
0  1  0  1  0  1   3   6 -3.04158 -2.42645 -2.53197 -3.14711 -2.61364 -2.93805  0.58653  0.57265  0.53474 -2.39854 -15.94739 24.43088 -5.72568 -5.15635
O	 0.943767254	 -0.158620486	 0.132499498
H	 1.340488082	 0.703353732	 -0.000000000
H	 0.000000000	 0.000000000	 0.000000000
O	 -1.515870609	 0.000000000	 0.784938722
H	 -2.269498424	 -0.376743413	 0.324680029
C	 -1.276073243	 -0.795292680	 1.943263758
H	 -0.418265302	 -0.361587352	 2.446028447
H	 -2.125399540	 -0.780082565	 2.625783209
H	 -1.037965869	 -1.827110464	 1.685906605
