9
0  1  0  1  0  1   3   6 -3.27163 -2.71563 -2.80542 -3.36142 -2.87677 -3.17274 -0.39490 -0.41218 -0.44958 -2.61825 -14.84641 22.51242 -5.85359 -4.43067
O	 0.943767254	 -0.158620486	 0.132499498
H	 1.340488082	 0.703353732	 -0.000000000
H	 0.000000000	 0.000000000	 0.000000000
O	 -1.496684313	 0.000000000	 -0.784938722
H	 -1.474902500	 -0.376743413	 -1.667728901
C	 -2.379924537	 -0.795292680	 0.001894407
H	 -2.386427560	 -0.361587352	 0.996160220
H	 -3.395666869	 -0.780082565	 -0.392384017
H	 -2.037993018	 -1.827110464	 0.079422865
