9
0  1  0  1  0  1   3   6 -4.96938 -4.64348 -4.62943 -4.95533 -4.67810 -4.85379 -3.19188 -3.19421 -3.23076 -4.66415 -8.15094  8.43370 -2.37399 -2.57292
O	 0.943767254	 -0.158620486	 0.132499498
H	 1.340488082	 0.703353732	 -0.000000000
H	 0.000000000	 0.000000000	 0.000000000
O	 -1.747102945	 0.932114732	 0.000000000
H	 -2.301397653	 0.817111109	 -0.775409628
C	 -2.466470714	 0.429117021	 1.123037590
H	 -1.823965591	 0.558966291	 1.987348554
H	 -3.391399971	 0.980688305	 1.289453625
H	 -2.692360160	 -0.631906197	 1.019213445
