9
0  1  0  1  0  1   3   6 -4.32923 -4.15989 -4.15935 -4.32869 -4.18814 -4.27472 -3.17439 -3.17169 -3.18432 -4.23072 -4.54187  2.65916 -0.85455 -1.49345
O	 0.943767254	 -0.158620486	 0.132499498
H	 1.340488082	 0.703353732	 -0.000000000
H	 0.000000000	 0.000000000	 0.000000000
O	 -2.054249534	 -1.079290742	 0.000000000
H	 -2.231800829	 -1.616825851	 -0.775409628
C	 -1.978324623	 -1.953780360	 1.123037590
H	 -1.769524828	 -1.332429966	 1.987348554
H	 -2.918463995	 -2.479006951	 1.289453625
H	 -1.172396285	 -2.679917967	 1.019213445
