9
0  1  0  1  0  1   3   6 -4.02675 -3.86102 -3.84064 -4.00636 -3.86959 -3.95631 -3.03227 -3.02949 -3.04763 -3.89571 -4.52403  3.09771 -1.05761 -1.41178
O	 -2.906114058	 -0.158620486	 -0.132499498
H	 -3.302834886	 0.703353732	 -0.000000000
H	 -1.962346804	 -0.000000000	 -0.000000000
O	 0.279953964	 0.000000000	 0.000000000
H	 0.258172151	 -0.376743413	 0.882790179
C	 1.163194188	 -0.795292680	 -0.786833129
H	 1.169697211	 -0.361587352	 -1.781098942
H	 2.178936520	 -0.780082565	 -0.392554705
H	 0.821262669	 -1.827110464	 -0.864361587
