9
0  1  0  1  0  1   3   6 -4.54806 -4.27740 -4.26661 -4.53727 -4.31613 -4.45185 -2.59652 -2.59736 -2.61602 -4.27449 -5.50364  5.02632 -1.47125 -2.32592
O	 -2.906114058	 -0.158620486	 -0.132499498
H	 -3.302834886	 0.703353732	 -0.000000000
H	 -1.962346804	 -0.000000000	 -0.000000000
O	 0.204522333	 0.000000000	 0.000000000
H	 0.382073627	 -0.537535109	 0.775409628
C	 0.128597422	 -0.874489618	 -1.123037590
H	 -0.080202373	 -0.253139225	 -1.987348554
H	 1.068736794	 -1.399716209	 -1.289453625
H	 -0.677330917	 -1.600627225	 -1.019213445
