9
0  1  0  1  0  1   3   6  2.12653  2.96366  2.70745  1.87031  2.61319  2.16863  6.18419  6.15734  6.12157  2.80128 -24.45262 45.87442 -11.81866 -6.80186
O	 0.943767254	 -0.158620486	 0.132499498
H	 1.340488082	 0.703353732	 -0.000000000
H	 0.000000000	 0.000000000	 0.000000000
O	 -1.309598774	 0.000000000	 -0.686821381
H	 -1.287816961	 -0.376743413	 -1.569611560
C	 -2.192838998	 -0.795292680	 0.100011748
H	 -2.199342021	 -0.361587352	 1.094277561
H	 -3.208581330	 -0.780082565	 -0.294266676
H	 -1.850907479	 -1.827110464	 0.177540206
