9
0  1  0  1  0  1   3   6 -5.08018 -4.64339 -4.73887 -5.17566 -4.80370 -5.03571 -2.87125 -2.88531 -2.92552 -4.45575 -11.24668 14.52171 -4.28208 -3.44870
O	 -2.906114058	 -0.158620486	 -0.132499498
H	 -3.302834886	 0.703353732	 -0.000000000
H	 -1.962346804	 -0.000000000	 -0.000000000
O	 -0.191869678	 0.000000000	 0.000000000
H	 0.362425029	 -0.115003623	 0.775409628
C	 0.527498091	 -0.502997711	 -1.123037590
H	 -0.115007032	 -0.373148441	 -1.987348554
H	 1.452427348	 0.048573573	 -1.289453625
H	 0.753387536	 -1.564020929	 -1.019213445
