9
0  1  0  1  0  1   3   6 -4.47770 -4.21666 -4.20406 -4.46511 -4.24842 -4.38744 -3.00513 -3.00925 -3.04183 -4.19162 -6.49696  6.31514 -1.91977 -2.09003
O	 -2.906114058	 -0.158620486	 -0.132499498
H	 -3.302834886	 0.703353732	 -0.000000000
H	 -1.962346804	 -0.000000000	 -0.000000000
O	 0.076108440	 0.000000000	 0.000000000
H	 0.054326627	 -0.376743413	 0.882790179
C	 0.959348664	 -0.795292680	 -0.786833129
H	 0.965851687	 -0.361587352	 -1.781098942
H	 1.975090996	 -0.780082565	 -0.392554705
H	 0.617417145	 -1.827110464	 -0.864361587
