9
0  1  0  1  0  1   3   6 -5.42677 -5.15932 -5.17264 -5.44009 -5.21442 -5.35851 -3.89053 -3.89301 -3.92531 -5.18474 -6.98780  5.84003 -1.88179 -2.15518
O	 -0.525329794	 -0.050971084	 -0.314516861
H	 -0.942006633	 0.747901631	 0.011252816
H	 0.403696525	 0.059785981	 -0.073568368
O	 2.458175212	 0.044443864	 0.082618798
H	 2.826158036	 -0.527633539	 0.760147125
C	 2.923180283	 -0.427186052	 -1.179540312
H	 2.492363188	 0.223907639	 -1.932654344
H	 4.009143970	 -0.376393191	 -1.253852240
H	 2.594837665	 -1.447055549	 -1.378620946
