9
0  1  0  1  0  1   3   6  2.78598  3.65981  3.40330  2.52947  3.30099  2.83897  7.06984  7.04211  7.00421  3.35736 -25.90640 49.10921 -12.62062 -7.22483
O	 0.943767254	 -0.158620486	 0.132499498
H	 1.340488082	 0.703353732	 -0.000000000
H	 0.000000000	 0.000000000	 0.000000000
O	 -1.287339012	 0.686821381	 0.000000000
H	 -1.841633720	 0.571817758	 -0.775409628
C	 -2.006706781	 0.183823670	 1.123037590
H	 -1.364201658	 0.313672940	 1.987348554
H	 -2.931636038	 0.735394954	 1.289453625
H	 -2.232596227	 -0.877199548	 1.019213445
