9
0  1  0  1  0  1   3   6 -4.82470 -4.42676 -4.43236 -4.83031 -4.49012 -4.70392 -2.68270 -2.68912 -2.72973 -4.41087 -10.05049 12.05241 -3.26390 -3.14889
O	 0.943767254	 -0.158620486	 0.132499498
H	 1.340488082	 0.703353732	 -0.000000000
H	 0.000000000	 0.000000000	 0.000000000
O	 -1.655150159	 0.883056062	 0.000000000
H	 -2.209444867	 0.768052439	 -0.775409628
C	 -2.374517928	 0.380058351	 1.123037590
H	 -1.732012805	 0.509907621	 1.987348554
H	 -3.299447185	 0.931629635	 1.289453625
H	 -2.600407374	 -0.680964867	 1.019213445
