9
0  1  0  1  0  1   3   6 -3.33667 -3.01227 -2.99434 -3.31874 -3.05335 -3.21389 -1.06963 -1.07057 -1.08744 -2.89072 -5.10755  6.41205 -1.47873 -2.71649
O	 -2.906114058	 -0.158620486	 -0.132499498
H	 -3.302834886	 0.703353732	 -0.000000000
H	 -1.962346804	 -0.000000000	 -0.000000000
O	 0.204196817	 0.000000000	 0.000000000
H	 0.957824632	 -0.376743413	 0.460258693
C	 -0.035600549	 -0.795292680	 -1.158325036
H	 -0.893408490	 -0.361587352	 -1.661089726
H	 0.813725748	 -0.780082565	 -1.840844487
H	 -0.273707923	 -1.827110464	 -0.900967883
