9
0  1  0  1  0  1   3   6 -4.09410 -3.93949 -3.91781 -4.07242 -3.94012 -4.02230 -3.19093 -3.18605 -3.19954 -4.00523 -4.36334  2.52428 -0.86151 -1.30466
O	 0.943767254	 -0.158620486	 0.132499498
H	 1.340488082	 0.703353732	 -0.000000000
H	 0.000000000	 0.000000000	 0.000000000
O	 -2.057940930	 0.000000000	 -1.079290742
H	 -2.036159117	 -0.376743413	 -1.962080921
C	 -2.941181154	 -0.795292680	 -0.292457613
H	 -2.947684177	 -0.361587352	 0.701808200
H	 -3.956923486	 -0.780082565	 -0.686736037
H	 -2.599249635	 -1.827110464	 -0.214929155
