9
0  1  0  1  0  1   3   6 -4.90480 -4.70810 -4.72046 -4.91715 -4.75140 -4.85647 -3.87308 -3.87153 -3.89345 -4.70987 -5.42809  3.59087 -1.28398 -1.58868
O	 -2.906114058	 -0.158620486	 -0.132499498
H	 -3.302834886	 0.703353732	 -0.000000000
H	 -1.962346804	 -0.000000000	 -0.000000000
O	 0.201569684	 0.000000000	 0.000000000
H	 0.755864391	 -0.115003623	 0.775409628
C	 0.920937453	 -0.502997711	 -1.123037590
H	 0.278432330	 -0.373148441	 -1.987348554
H	 1.845866710	 0.048573573	 -1.289453625
H	 1.146826898	 -1.564020929	 -1.019213445
