9
0  1  0  1  0  1   3   6 -4.67759 -4.46359 -4.46601 -4.68001 -4.50157 -4.61288 -3.26802 -3.26777 -3.28709 -4.52086 -5.42341  3.87649 -1.15325 -1.82069
O	 0.943767254	 -0.158620486	 0.132499498
H	 1.340488082	 0.703353732	 -0.000000000
H	 0.000000000	 0.000000000	 0.000000000
O	 -1.960874555	 -1.030232072	 0.000000000
H	 -2.138425850	 -1.567767181	 -0.775409628
C	 -1.884949644	 -1.904721690	 1.123037590
H	 -1.676149849	 -1.283371296	 1.987348554
H	 -2.825089016	 -2.429948281	 1.289453625
H	 -1.079021306	 -2.630859297	 1.019213445
