10
0  1  0  1  0  1   3   7 -5.65014 -5.37695 -5.38832 -5.66151 -5.45388 -5.58018 -3.87793 -3.89055 -3.90540 -5.54003 -8.32513  7.33964 -2.25457 -2.29997
O	 0.966250538	 -0.099862343	 0.008741721
H	 1.289472985	 0.801864381	 0.000000000
H	 0.000000000	 -0.000000000	 0.000000000
N	 -1.948813318	 0.000000000	 1.005981873
H	 -1.792225170	 -0.585824712	 1.816309556
H	 -2.617932890	 -0.499615234	 0.434222314
C	 -2.524205648	 1.279637933	 1.429785001
H	 -2.703408950	 1.897059277	 0.552913006
H	 -3.461259326	 1.196985486	 1.984473418
H	 -1.805470429	 1.803099634	 2.055554204
