10
0  1  0  1  0  1   3   7 -4.27927 -3.67899 -3.86831 -4.46859 -3.96685 -4.26149 -0.60077 -0.62293 -0.63377 -4.10423 -19.59179 28.40523 -7.75009 -5.16757
O	 0.966250538	 -0.099862343	 0.008741721
H	 1.289472985	 0.801864381	 0.000000000
H	 0.000000000	 -0.000000000	 0.000000000
N	 -1.557043980	 0.000000000	 -0.804785498
H	 -2.180514265	 -0.585824712	 -0.264012343
H	 -1.396445463	 -0.499615234	 -1.670139825
C	 -2.211764420	 1.279637933	 -1.091188309
H	 -1.541972647	 1.897059277	 -1.684818919
H	 -3.160665519	 1.196985486	 -1.625356391
H	 -2.394328837	 1.803099634	 -0.155860749
