10
0  1  0  1  0  1   3   7 -6.95829 -6.53323 -6.65280 -7.07786 -6.74166 -6.94079 -4.34455 -4.36823 -4.37954 -6.70790 -13.83938 15.73617 -4.99549 -3.60921
O	 -0.687464896	 -0.111744327	 -0.019625472
H	 -1.046121544	 0.775938208	 0.012706845
H	 0.274042519	 0.025850654	 -0.003497262
N	 2.183900296	 0.101206785	 0.005614767
H	 2.479264727	 -0.451431190	 -0.789176096
H	 2.493980791	 -0.409514306	 0.822474260
C	 2.843235573	 1.409570750	 -0.034626871
H	 2.532693151	 1.991295710	 0.829888549
H	 3.934544863	 1.370275778	 -0.043582540
H	 2.516523301	 1.945488219	 -0.922450683
