10
0  1  0  1  0  1   3   7 -5.45690 -5.23195 -5.25058 -5.47553 -5.29435 -5.40188 -3.89206 -3.89428 -3.90089 -5.26591 -7.24162  6.14676 -2.04729 -2.12375
O	 -2.978214285	 -0.099862343	 -0.008741721
H	 -3.301436732	 0.801864381	 -0.000000000
H	 -2.011963747	 -0.000000000	 -0.000000000
N	 0.156779859	 0.000000000	 0.000000000
H	 0.097308571	 -0.642116346	 -0.780058433
H	 0.161232769	 -0.579476868	 0.829718089
C	 1.411655210	 0.753095989	 -0.079328110
H	 1.475071647	 1.429419250	 0.769666965
H	 2.313306375	 0.137088620	 -0.091175531
H	 1.405300659	 1.361206298	 -0.980627746
