10
0  1  0  1  0  1   3   7  1.36404  2.27908  1.85533  0.94029  1.73850  1.26501  6.58804  6.56317  6.53467  0.90886 -31.44469 55.20869 -14.95039 -7.90475
O	 0.966250538	 -0.099862343	 0.008741721
H	 1.289472985	 0.801864381	 0.000000000
H	 0.000000000	 -0.000000000	 0.000000000
N	 -1.362413483	 0.000000000	 -0.704187311
H	 -1.985883768	 -0.585824712	 -0.163414156
H	 -1.201814965	 -0.499615234	 -1.569541638
C	 -2.017133923	 1.279637933	 -0.990590122
H	 -1.347342149	 1.897059277	 -1.584220732
H	 -2.966035021	 1.196985486	 -1.524758204
H	 -2.199698340	 1.803099634	 -0.055262562
