10
0  1  0  1  0  1   3   7 -3.89599 -3.15423 -3.50350 -4.24526 -3.61665 -3.98659  0.33828  0.31091  0.29544 -3.88412 -25.27274 39.79065 -11.98807 -6.41396
O	 -0.285389575	 -0.095879878	 -0.017707150
H	 -0.644046223	 0.791802657	 0.014625167
H	 0.676117840	 0.041715103	 -0.001578940
N	 2.284419126	 0.105172897	 0.006094347
H	 2.579783557	 -0.447465078	 -0.788696516
H	 2.594499621	 -0.405548194	 0.822953840
C	 2.943754403	 1.413536862	 -0.034147291
H	 2.633211981	 1.995261822	 0.830368129
H	 4.035063693	 1.374241890	 -0.043102960
H	 2.617042131	 1.949454331	 -0.921971103
