10
0  1  0  1  0  1   3   7 -5.10716 -4.88128 -4.89538 -5.12126 -4.96053 -5.05848 -3.59173 -3.60528 -3.61719 -4.94115 -6.10112  4.71241 -1.66301 -1.88943
O	 -2.978214285	 -0.099862343	 -0.008741721
H	 -3.301436732	 0.801864381	 -0.000000000
H	 -2.011963747	 -0.000000000	 -0.000000000
N	 0.254047425	 0.000000000	 0.000000000
H	 0.097459277	 -0.585824712	 -0.810327683
H	 0.923166996	 -0.499615234	 0.571759560
C	 0.829439754	 1.279637933	 -0.423803127
H	 1.008643057	 1.897059277	 0.453068868
H	 1.766493433	 1.196985486	 -0.978491545
H	 0.110704535	 1.803099634	 -1.049572330
