10
0  1  0  1  0  1   3   7 -5.42883 -5.15627 -5.18409 -5.45665 -5.25781 -5.37867 -3.61869 -3.63477 -3.64876 -5.19805 -7.28161  6.55724 -2.19749 -2.27618
O	 -2.978214285	 -0.099862343	 -0.008741721
H	 -3.301436732	 0.801864381	 -0.000000000
H	 -2.011963747	 -0.000000000	 -0.000000000
N	 0.151046917	 0.000000000	 0.000000000
H	 -0.005541231	 -0.585824712	 -0.810327683
H	 0.820166488	 -0.499615234	 0.571759560
C	 0.726439246	 1.279637933	 -0.423803127
H	 0.905642549	 1.897059277	 0.453068868
H	 1.663492925	 1.196985486	 -0.978491545
H	 0.007704027	 1.803099634	 -1.049572330
