10
0  1  0  1  0  1   3   7  4.85803  5.90651  5.33630  4.28782  5.19005  4.65073 10.74555 10.71691 10.67489  4.24663 -31.62692 63.37391 -18.50860 -8.99177
O	 -2.978214285	 -0.099862343	 -0.008741721
H	 -3.301436732	 0.801864381	 -0.000000000
H	 -2.011963747	 -0.000000000	 -0.000000000
N	 -0.569956638	 0.000000000	 0.000000000
H	 -0.726544786	 -0.585824712	 -0.810327683
H	 0.099162933	 -0.499615234	 0.571759560
C	 0.005435691	 1.279637933	 -0.423803127
H	 0.184638994	 1.897059277	 0.453068868
H	 0.942489370	 1.196985486	 -0.978491545
H	 -0.713299528	 1.803099634	 -1.049572330
