10
0  1  0  1  0  1   3   7  4.87002  5.99325  5.36428  4.24105  5.20293  4.63915 11.73065 11.69832 11.68007  4.29383 -32.46148 65.76022 -19.06120 -9.94372
O	 -2.978214285	 -0.099862343	 -0.008741721
H	 -3.301436732	 0.801864381	 -0.000000000
H	 -2.011963747	 -0.000000000	 -0.000000000
N	 -0.569256783	 0.000000000	 0.000000000
H	 -0.042903359	 -0.372561819	 -0.780058433
H	 -0.065188639	 -0.285882101	 0.829718089
C	 -0.594019365	 1.463301927	 -0.079328110
H	 -1.148024272	 1.856383803	 0.769666965
H	 0.390284247	 1.936151057	 -0.091175531
H	 -1.123835617	 1.761853879	 -0.980627746
