10
0  1  0  1  0  1   3   7 -5.31258 -5.08789 -5.08710 -5.31180 -5.14541 -5.24691 -3.84625 -3.85673 -3.86931 -5.24899 -6.88623  5.21483 -1.68815 -1.88944
O	 0.966250538	 -0.099862343	 0.008741721
H	 1.289472985	 0.801864381	 0.000000000
H	 0.000000000	 -0.000000000	 0.000000000
N	 -2.046253984	 0.000000000	 1.056280967
H	 -1.889665836	 -0.585824712	 1.866608650
H	 -2.715373556	 -0.499615234	 0.484521408
C	 -2.621646314	 1.279637933	 1.480084095
H	 -2.800849616	 1.897059277	 0.603212100
H	 -3.558699992	 1.196985486	 2.034772512
H	 -1.902911095	 1.803099634	 2.105853298
