10
0  1  0  1  0  1   3   7 -5.14783 -4.96611 -4.97543 -5.15716 -5.01138 -5.09794 -3.85108 -3.85072 -3.85614 -5.01951 -6.12537  4.41627 -1.55192 -1.75849
O	 -2.978214285	 -0.099862343	 -0.008741721
H	 -3.301436732	 0.801864381	 -0.000000000
H	 -2.011963747	 -0.000000000	 -0.000000000
N	 0.260053364	 0.000000000	 0.000000000
H	 0.200582076	 -0.642116346	 -0.780058433
H	 0.264506274	 -0.579476868	 0.829718089
C	 1.514928715	 0.753095989	 -0.079328110
H	 1.578345152	 1.429419250	 0.769666965
H	 2.416579880	 0.137088620	 -0.091175531
H	 1.508574164	 1.361206298	 -0.980627746
