10
0  1  0  1  0  1   3   7 -5.85838 -5.52628 -5.55713 -5.88922 -5.63047 -5.78665 -3.73243 -3.74765 -3.76328 -5.69464 -10.17578 10.33553 -3.05388 -2.80050
O	 0.966250538	 -0.099862343	 0.008741721
H	 1.289472985	 0.801864381	 0.000000000
H	 0.000000000	 -0.000000000	 0.000000000
N	 -1.848989726	 0.000000000	 -0.955682779
H	 -2.472460011	 -0.585824712	 -0.414909624
H	 -1.688391209	 -0.499615234	 -1.821037106
C	 -2.503710166	 1.279637933	 -1.242085590
H	 -1.833918393	 1.897059277	 -1.835716200
H	 -3.452611265	 1.196985486	 -1.776253672
H	 -2.686274583	 1.803099634	 -0.306758030
