10
0  1  0  1  0  1   3   7 -5.61952 -5.23191 -5.31167 -5.69928 -5.40234 -5.57961 -3.10934 -3.13030 -3.14358 -5.26603 -10.68929 12.58685 -3.89207 -3.27152
O	 -2.978214285	 -0.099862343	 -0.008741721
H	 -3.301436732	 0.801864381	 -0.000000000
H	 -2.011963747	 -0.000000000	 -0.000000000
N	 -0.049882601	 0.000000000	 0.000000000
H	 0.573587684	 -0.585824712	 -0.540773156
H	 -0.210481119	 -0.499615234	 0.865354327
C	 0.604837838	 1.279637933	 0.286402811
H	 -0.064953934	 1.897059277	 0.880033421
H	 1.553738938	 1.196985486	 0.820570892
H	 0.787402255	 1.803099634	 -0.648924749
