10
0  1  0  1  0  1   3   7 -5.29148 -4.81656 -4.95091 -5.42583 -5.05395 -5.27388 -2.24897 -2.27204 -2.28373 -4.88221 -13.09525 17.51655 -5.27017 -4.03333
O	 -2.978214285	 -0.099862343	 -0.008741721
H	 -3.301436732	 0.801864381	 -0.000000000
H	 -2.011963747	 -0.000000000	 -0.000000000
N	 -0.157954607	 0.000000000	 0.000000000
H	 -0.314542755	 -0.585824712	 -0.810327683
H	 0.511164964	 -0.499615234	 0.571759560
C	 0.417437722	 1.279637933	 -0.423803127
H	 0.596641025	 1.897059277	 0.453068868
H	 1.354491401	 1.196985486	 -0.978491545
H	 -0.301297497	 1.803099634	 -1.049572330
