10
0  1  0  1  0  1   3   7 -4.17986 -3.56114 -3.82882 -4.44755 -3.92603 -4.23052 -0.18219 -0.20881 -0.21589 -3.90436 -20.49192 30.10821 -8.20087 -5.31979
O	 0.966250538	 -0.099862343	 0.008741721
H	 1.289472985	 0.801864381	 0.000000000
H	 0.000000000	 -0.000000000	 0.000000000
N	 -1.528237448	 -0.804785498	 0.000000000
H	 -1.468766160	 -1.446901845	 0.780058433
H	 -1.532690358	 -1.384262367	 -0.829718089
C	 -2.783112799	 -0.051689510	 0.079328110
H	 -2.846529236	 0.624633751	 -0.769666965
H	 -3.684763965	 -0.667696878	 0.091175531
H	 -2.776758249	 0.556420800	 0.980627746
