10
0  1  0  1  0  1   3   7 -5.81351 -5.41065 -5.47521 -5.87808 -5.55655 -5.74845 -3.25555 -3.27309 -3.28736 -5.60496 -12.54415 14.50095 -4.13602 -3.42574
O	 0.966250538	 -0.099862343	 0.008741721
H	 1.289472985	 0.801864381	 0.000000000
H	 0.000000000	 -0.000000000	 0.000000000
N	 -1.751674478	 0.000000000	 -0.905383686
H	 -2.375144763	 -0.585824712	 -0.364610531
H	 -1.591075960	 -0.499615234	 -1.770738013
C	 -2.406394918	 1.279637933	 -1.191786497
H	 -1.736603145	 1.897059277	 -1.785417107
H	 -3.355296017	 1.196985486	 -1.725954579
H	 -2.588959335	 1.803099634	 -0.256458937
