10
0  1  0  1  0  1   3   7  4.79595  5.75517  5.25646  4.29724  5.15033  4.64974 10.18311 10.16968 10.15213  4.31684 -29.75828 59.90752 -17.30601 -8.52639
O	 -2.978214285	 -0.099862343	 -0.008741721
H	 -3.301436732	 0.801864381	 -0.000000000
H	 -2.011963747	 -0.000000000	 -0.000000000
N	 -0.566134676	 0.000000000	 0.000000000
H	 -0.625605964	 -0.642116346	 -0.780058433
H	 -0.561681766	 -0.579476868	 0.829718089
C	 0.688740675	 0.753095989	 -0.079328110
H	 0.752157112	 1.429419250	 0.769666965
H	 1.590391840	 0.137088620	 -0.091175531
H	 0.682386124	 1.361206298	 -0.980627746
