10
0  1  0  1  0  1   3   7 -5.41833 -5.10048 -5.13814 -5.45600 -5.23428 -5.36835 -3.15982 -3.18141 -3.19537 -5.16379 -7.04616  6.78074 -2.27066 -2.62770
O	 -2.978214285	 -0.099862343	 -0.008741721
H	 -3.301436732	 0.801864381	 -0.000000000
H	 -2.011963747	 -0.000000000	 -0.000000000
N	 0.152096699	 0.000000000	 0.000000000
H	 0.678450123	 -0.372561819	 -0.780058433
H	 0.656164843	 -0.285882101	 0.829718089
C	 0.127334117	 1.463301927	 -0.079328110
H	 -0.426670790	 1.856383803	 0.769666965
H	 1.111637729	 1.936151057	 -0.091175531
H	 -0.402482135	 1.761853879	 -0.980627746
