10
0  1  0  1  0  1   3   7 -5.63052 -5.23617 -5.32093 -5.71528 -5.41371 -5.59383 -3.06620 -3.08715 -3.10084 -5.26492 -10.67068 12.64300 -3.91234 -3.32489
O	 -2.978214285	 -0.099862343	 -0.008741721
H	 -3.301436732	 0.801864381	 -0.000000000
H	 -2.011963747	 -0.000000000	 -0.000000000
N	 -0.054954099	 0.000000000	 0.000000000
H	 -0.211542247	 -0.585824712	 -0.810327683
H	 0.614165472	 -0.499615234	 0.571759560
C	 0.520438230	 1.279637933	 -0.423803127
H	 0.699641533	 1.897059277	 0.453068868
H	 1.457491909	 1.196985486	 -0.978491545
H	 -0.198296989	 1.803099634	 -1.049572330
