10
0  1  0  1  0  1   3   7 -6.70156 -6.40398 -6.45531 -6.75289 -6.52750 -6.66376 -4.83176 -4.85001 -4.86415 -6.54138 -9.60107  8.42452 -2.87429 -2.49054
O	 -0.687464896	 -0.111744327	 -0.019625472
H	 -1.046121544	 0.775938208	 0.012706845
H	 0.274042519	 0.025850654	 -0.003497262
N	 2.384937956	 0.109139009	 0.006573927
H	 2.680302387	 -0.443498966	 -0.788216936
H	 2.695018451	 -0.401582082	 0.823433420
C	 3.044273233	 1.417502974	 -0.033667711
H	 2.733730811	 1.999227934	 0.830847709
H	 4.135582523	 1.378208002	 -0.042623380
H	 2.717560961	 1.953420443	 -0.921491523
