10
0  1  0  1  0  1   3   7  4.13146  5.21955  4.59876  3.51067  4.46864  3.89744  9.84921  9.82206  9.78087  2.87644 -38.55410 73.15783 -22.14424 -9.58303
O	 -0.084351914	 -0.087947654	 -0.016747989
H	 -0.443008562	 0.799734881	 0.015584328
H	 0.877155501	 0.049647327	 -0.000619779
N	 2.284419126	 0.105172897	 0.006094347
H	 2.579783557	 -0.447465078	 -0.788696516
H	 2.594499621	 -0.405548194	 0.822953840
C	 2.943754403	 1.413536862	 -0.034147291
H	 2.633211981	 1.995261822	 0.830368129
H	 4.035063693	 1.374241890	 -0.043102960
H	 2.617042131	 1.949454331	 -0.921971103
