10
0  1  0  1  0  1   3   7 -5.53599 -5.30622 -5.33314 -5.56292 -5.39283 -5.49554 -3.90870 -3.92340 -3.93378 -5.44397 -7.26816  5.57476 -1.80508 -1.94549
O	 0.966250538	 -0.099862343	 0.008741721
H	 1.289472985	 0.801864381	 0.000000000
H	 0.000000000	 -0.000000000	 0.000000000
N	 -2.005811651	 -1.056280967	 0.000000000
H	 -1.946340363	 -1.698397314	 0.780058433
H	 -2.010264561	 -1.635757836	 -0.829718089
C	 -3.260687002	 -0.303184979	 0.079328110
H	 -3.324103438	 0.373138282	 -0.769666965
H	 -4.162338167	 -0.919192347	 0.091175531
H	 -3.254332451	 0.304925331	 0.980627746
