10
0  1  0  1  0  1   3   7 -5.08768 -4.81881 -4.83940 -5.10827 -4.92789 -5.03758 -3.17610 -3.19615 -3.20897 -4.90024 -5.84895  4.85797 -1.71730 -2.19196
O	 -2.978214285	 -0.099862343	 -0.008741721
H	 -3.301436732	 0.801864381	 -0.000000000
H	 -2.011963747	 -0.000000000	 -0.000000000
N	 0.255147197	 0.000000000	 0.000000000
H	 0.781500621	 -0.372561819	 -0.780058433
H	 0.759215341	 -0.285882101	 0.829718089
C	 0.230384615	 1.463301927	 -0.079328110
H	 -0.323620292	 1.856383803	 0.769666965
H	 1.214688227	 1.936151057	 -0.091175531
H	 -0.299431637	 1.761853879	 -0.980627746
