10
0  1  0  1  0  1   3   7 -5.29618 -4.76739 -4.92683 -5.45561 -5.05005 -5.28618 -1.61367 -1.64065 -1.64460 -4.84721 -13.02854 18.20874 -5.44986 -4.57755
O	 -2.978214285	 -0.099862343	 -0.008741721
H	 -3.301436732	 0.801864381	 -0.000000000
H	 -2.011963747	 -0.000000000	 -0.000000000
N	 -0.157054793	 0.000000000	 0.000000000
H	 0.369298631	 -0.372561819	 -0.780058433
H	 0.347013351	 -0.285882101	 0.829718089
C	 -0.181817375	 1.463301927	 -0.079328110
H	 -0.735822282	 1.856383803	 0.769666965
H	 0.802486237	 1.936151057	 -0.091175531
H	 -0.711633627	 1.761853879	 -0.980627746
