15
0  1  0  1  0  1   3  12 -6.28145 -5.78546 -5.63819 -6.13417 -5.71335 -5.96805 -3.11855 -3.12176 -3.14880 -5.75020 -11.47724 13.49222 -3.11953 -4.64564
O	 0.944789578	 -0.219680677	 0.008484814
H	 1.378737902	 0.634372392	 -0.000000000
H	 0.000000000	 0.000000000	 0.000000000
C	 -0.306471880	 -2.736680702	 0.059773274
H	 -0.323107810	 -3.823169776	 0.089716568
H	 0.229261620	 -2.355480962	 0.925518716
H	 0.239597001	 -2.404044348	 -0.819430748
C	 -1.682908047	 -2.122821282	 0.034493531
O	 -1.851944174	 -0.904783206	 0.000000000
N	 -2.716697755	 -2.999666750	 0.052184028
H	 -2.502929952	 -3.979512299	 0.080723853
C	 -4.098587009	 -2.572054029	 0.032497871
H	 -4.097132896	 -1.487505717	 0.001030919
H	 -4.614104014	 -2.954306859	 -0.846361309
H	 -4.623603464	 -2.902804580	 0.926462409
