15
0  1  0  1  0  1   3  12 -1.59006 -1.37093 -1.25767 -1.47680 -1.30933 -1.40504  0.48087  0.48144  0.48408 -1.21566 -3.03085  4.87933 -0.78187 -2.28228
O	 -2.849596330	 -0.219680677	 -0.008484814
H	 -3.283544654	 0.634372392	 0.000000000
H	 -1.904806751	 -0.000000000	 0.000000000
C	 -0.201078064	 -1.831897495	 -0.059773274
H	 -0.184442134	 -2.918386569	 -0.089716568
H	 -0.736811563	 -1.450697755	 -0.925518716
H	 -0.747146945	 -1.499261141	 0.819430748
C	 1.175358104	 -1.218038075	 -0.034493531
O	 1.344394230	 0.000000000	 0.000000000
N	 2.209147811	 -2.094883543	 -0.052184028
H	 1.995380008	 -3.074729093	 -0.080723853
C	 3.591037065	 -1.667270823	 -0.032497871
H	 3.589582952	 -0.582722510	 -0.001030919
H	 4.106554070	 -2.049523653	 0.846361309
H	 4.116053520	 -1.998021374	 -0.926462409
