15
0  1  0  1  0  1   3  12  1.40801  2.45322  2.35327  1.30805  2.25721  1.69128  6.60100  6.59012  6.54935  2.26186 -31.16324 58.54864 -15.58878 -9.53477
O	 0.944789578	 -0.219680677	 0.008484814
H	 1.378737902	 0.634372392	 -0.000000000
H	 0.000000000	 0.000000000	 0.000000000
C	 -0.889656715	 -2.359205915	 0.507212776
H	 -1.357625586	 -3.291815089	 0.811970268
H	 0.110080460	 -2.296944006	 0.929690977
H	 -0.775671299	 -2.344168823	 -0.573814092
C	 -1.668814786	 -1.139369979	 0.927869366
O	 -1.285412689	 0.000000000	 0.666682363
N	 -2.814997044	 -1.381845576	 1.610045227
H	 -3.064686848	 -2.337300615	 1.787158654
C	 -3.676095323	 -0.320577470	 2.084468935
H	 -3.221115020	 0.617941864	 1.785451027
H	 -4.667682998	 -0.393859629	 1.642143177
H	 -3.766094585	 -0.344507622	 3.168691367
