15
0  1  0  1  0  1   3  12 -1.78795 -1.62585 -1.52411 -1.68622 -1.56786 -1.63522 -0.21169 -0.20978 -0.20726 -1.51492 -2.19690  2.95624 -0.53086 -1.74341
O	 -2.849596330	 -0.219680677	 -0.008484814
H	 -3.283544654	 0.634372392	 0.000000000
H	 -1.904806751	 -0.000000000	 0.000000000
C	 -0.020566899	 -1.831897495	 -0.059773274
H	 -0.003930969	 -2.918386569	 -0.089716568
H	 -0.556300398	 -1.450697755	 -0.925518716
H	 -0.566635780	 -1.499261141	 0.819430748
C	 1.355869269	 -1.218038075	 -0.034493531
O	 1.524905395	 0.000000000	 0.000000000
N	 2.389658976	 -2.094883543	 -0.052184028
H	 2.175891173	 -3.074729093	 -0.080723853
C	 3.771548230	 -1.667270823	 -0.032497871
H	 3.770094117	 -0.582722510	 -0.001030919
H	 4.287065235	 -2.049523653	 0.846361309
H	 4.296564685	 -1.998021374	 -0.926462409
