15
0  1  0  1  0  1   3  12 -6.90808 -6.40644 -6.28896 -6.79059 -6.35962 -6.62299 -4.16071 -4.16705 -4.20075 -6.28649 -12.84003 15.58545 -4.45959 -4.57233
O	 0.944789578	 -0.219680677	 0.008484814
H	 1.378737902	 0.634372392	 -0.000000000
H	 0.000000000	 0.000000000	 0.000000000
C	 -1.256917483	 -2.359205915	 0.697693452
H	 -1.724886354	 -3.291815089	 1.002450943
H	 -0.257180308	 -2.296944006	 1.120171653
H	 -1.142932067	 -2.344168823	 -0.383333416
C	 -2.036075554	 -1.139369979	 1.118350042
O	 -1.652673457	 0.000000000	 0.857163038
N	 -3.182257812	 -1.381845576	 1.800525902
H	 -3.431947616	 -2.337300615	 1.977639330
C	 -4.043356091	 -0.320577470	 2.274949610
H	 -3.588375788	 0.617941864	 1.975931703
H	 -5.034943766	 -0.393859629	 1.832623853
H	 -4.133355353	 -0.344507622	 3.359172041
