15
0  1  0  1  0  1   3  12 -4.79296 -3.95831 -3.98719 -4.82185 -4.08364 -4.52206 -0.74631 -0.76123 -0.78883 -3.77571 -24.51845 40.69288 -12.23210 -7.71803
O	 -0.392018453	 -0.384718737	 0.076071325
H	 -0.911460851	 0.413812040	 0.177648774
H	 0.524903820	 -0.068484694	 0.090511364
C	 1.862006792	 -2.281024202	 -0.224574009
H	 2.511969635	 -3.142136079	 -0.357489396
H	 1.181030822	 -2.203552143	 -1.068439284
H	 1.248989894	 -2.419820189	 0.662434354
C	 2.616738870	 -0.983011325	 -0.091980502
O	 2.040023423	 0.092283531	 0.064608240
N	 3.967371993	 -1.080514009	 -0.156598471
H	 4.368323621	 -1.991047988	 -0.286113569
C	 4.835614105	 0.071456451	 -0.047155389
H	 4.199119975	 0.939756894	 0.087629218
H	 5.501203612	 -0.019998747	 0.808937492
H	 5.430079828	 0.200876940	 -0.949414576
