15
0  1  0  1  0  1   3  12 -1.62968 -1.54183 -1.46843 -1.55628 -1.49650 -1.53051 -0.72995 -0.72557 -0.72426 -1.49597 -1.26493  1.03030 -0.24638 -1.01496
O	 -2.849596330	 -0.219680677	 -0.008484814
H	 -3.283544654	 0.634372392	 0.000000000
H	 -1.904806751	 -0.000000000	 0.000000000
C	 0.340455433	 -1.831897495	 -0.059773274
H	 0.357091363	 -2.918386569	 -0.089716568
H	 -0.195278066	 -1.450697755	 -0.925518716
H	 -0.205613448	 -1.499261141	 0.819430748
C	 1.716891601	 -1.218038075	 -0.034493531
O	 1.885927727	 0.000000000	 0.000000000
N	 2.750681308	 -2.094883543	 -0.052184028
H	 2.536913505	 -3.074729093	 -0.080723853
C	 4.132570562	 -1.667270823	 -0.032497871
H	 4.131116449	 -0.582722510	 -0.001030919
H	 4.648087567	 -2.049523653	 0.846361309
H	 4.657587017	 -1.998021374	 -0.926462409
