15
0  1  0  1  0  1   3  12 -7.80446 -7.36632 -7.27664 -7.71478 -7.34250 -7.57269 -5.52265 -5.52857 -5.56402 -7.17191 -10.79144 11.32744 -3.78679 -3.92112
O	 -2.849596330	 -0.219680677	 -0.008484814
H	 -3.283544654	 0.634372392	 0.000000000
H	 -1.904806751	 -0.000000000	 0.000000000
C	 -0.379470218	 -2.359205915	 0.159469586
H	 0.088498652	 -3.291815089	 -0.145287905
H	 -1.379207392	 -2.296944006	 -0.263008615
H	 -0.493455634	 -2.344168823	 1.240496454
C	 0.399687854	 -1.139369979	 -0.261187003
O	 0.016285756	 0.000000000	 0.000000000
N	 1.545870111	 -1.381845576	 -0.943362864
H	 1.795559915	 -2.337300615	 -1.120476291
C	 2.406968391	 -0.320577470	 -1.417786572
H	 1.951988087	 0.617941864	 -1.118768665
H	 3.398556065	 -0.393859629	 -0.975460814
H	 2.496967653	 -0.344507622	 -2.502009003
