15
0  1  0  1  0  1   3  12 -6.39523 -5.97317 -5.89826 -6.32033 -5.95508 -6.17808 -4.60760 -4.61735 -4.64542 -5.73359 -12.05540 15.02160 -4.92907 -3.77073
O	 -2.849596330	 -0.219680677	 -0.008484814
H	 -3.283544654	 0.634372392	 0.000000000
H	 -1.904806751	 -0.000000000	 0.000000000
C	 0.664086391	 -2.254367015	 -0.059773274
H	 1.613331495	 -2.783204414	 -0.089716568
H	 0.066090983	 -2.527725965	 -0.925518716
H	 0.102980418	 -2.560958361	 0.819430748
C	 0.820686623	 -0.755408617	 -0.034493531
O	 -0.149647230	 0.000000000	 0.000000000
N	 2.096951927	 -0.298543202	 -0.052184028
H	 2.838639163	 -0.973594325	 -0.080723853
C	 2.417573075	 1.112014357	 -0.032497871
H	 1.477599628	 1.653029215	 -0.001030919
H	 3.006372239	 1.367338764	 0.846361309
H	 2.966519682	 1.401316669	 -0.926462409
