15
0  1  0  1  0  1   3  12 -8.13241 -7.62215 -7.53205 -8.04231 -7.60840 -7.87311 -5.49594 -5.50788 -5.54071 -7.42503 -13.70994 16.07673 -5.16736 -4.62447
O	 -0.392018453	 -0.384718737	 0.076071325
H	 -0.911460851	 0.413812040	 0.177648774
H	 0.524903820	 -0.068484694	 0.090511364
C	 2.146091718	 -2.250880160	 -0.229430845
H	 2.796054561	 -3.111992037	 -0.362346232
H	 1.465115748	 -2.173408101	 -1.073296120
H	 1.533074820	 -2.389676147	 0.657577518
C	 2.900823796	 -0.952867283	 -0.096837338
O	 2.324108349	 0.122427573	 0.059751404
N	 4.251456919	 -1.050369967	 -0.161455307
H	 4.652408547	 -1.960903946	 -0.290970405
C	 5.119699031	 0.101600493	 -0.052012225
H	 4.483204901	 0.969900936	 0.082772382
H	 5.785288538	 0.010145295	 0.804080656
H	 5.714164754	 0.231020982	 -0.954271412
