15
0  1  0  1  0  1   3  12 -6.98418 -6.58883 -6.47726 -6.87262 -6.53651 -6.74395 -5.06417 -5.07163 -5.10276 -6.47197 -10.61210 11.31750 -3.69164 -3.48573
O	 0.944789578	 -0.219680677	 0.008484814
H	 1.378737902	 0.634372392	 -0.000000000
H	 0.000000000	 0.000000000	 0.000000000
C	 -2.496243098	 -1.349583809	 0.059773274
H	 -3.445488202	 -1.878421207	 0.089716568
H	 -1.898247689	 -1.622942759	 0.925518716
H	 -1.935137125	 -1.656175155	 -0.819430748
C	 -2.652843329	 0.149374589	 0.034493531
O	 -1.682509477	 0.904783206	 0.000000000
N	 -3.929108634	 0.606240004	 0.052184028
H	 -4.670795870	 -0.068811118	 0.080723853
C	 -4.249729782	 2.016797564	 0.032497871
H	 -3.309756335	 2.557812421	 0.001030919
H	 -4.838528946	 2.272121971	 -0.846361309
H	 -4.798676389	 2.306099876	 0.926462409
