15
0  1  0  1  0  1   3  12 -7.57283 -7.20263 -7.10286 -7.47307 -7.16155 -7.35471 -5.63046 -5.63384 -5.66482 -7.06661 -9.14195  8.29893 -2.89678 -3.32681
O	 -2.849596330	 -0.219680677	 -0.008484814
H	 -3.283544654	 0.634372392	 0.000000000
H	 -1.904806751	 -0.000000000	 0.000000000
C	 -0.283415593	 -2.359205915	 0.159469586
H	 0.184553277	 -3.291815089	 -0.145287905
H	 -1.283152767	 -2.296944006	 -0.263008615
H	 -0.397401009	 -2.344168823	 1.240496454
C	 0.495742479	 -1.139369979	 -0.261187003
O	 0.112340381	 0.000000000	 0.000000000
N	 1.641924736	 -1.381845576	 -0.943362864
H	 1.891614540	 -2.337300615	 -1.120476291
C	 2.503023016	 -0.320577470	 -1.417786572
H	 2.048042712	 0.617941864	 -1.118768665
H	 3.494610690	 -0.393859629	 -0.975460814
H	 2.593022278	 -0.344507622	 -2.502009003
