15
0  1  0  1  0  1   3  12  3.80067  5.00713  4.83480  3.62834  4.72602  4.06975  9.04341  9.02923  8.97787  4.24855 -37.27157 75.12805 -22.57506 -11.03286
O	 -0.392018453	 -0.384718737	 0.076071325
H	 -0.911460851	 0.413812040	 0.177648774
H	 0.524903820	 -0.068484694	 0.090511364
C	 1.672616842	 -2.301120230	 -0.221336119
H	 2.322579685	 -3.162232107	 -0.354251505
H	 0.991640872	 -2.223648171	 -1.065201393
H	 1.059599944	 -2.439916217	 0.665672245
C	 2.427348920	 -1.003107353	 -0.088742612
O	 1.850633473	 0.072187503	 0.067846130
N	 3.777982043	 -1.100610037	 -0.153360581
H	 4.178933671	 -2.011144016	 -0.282875679
C	 4.646224155	 0.051360423	 -0.043917498
H	 4.009730025	 0.919660866	 0.090867108
H	 5.311813662	 -0.040094775	 0.812175382
H	 5.240689878	 0.180780912	 -0.946176686
