15
0  1  0  1  0  1   3  12 -7.38355 -6.77858 -6.73788 -7.34286 -6.81855 -7.13611 -4.28119 -4.29212 -4.32637 -6.46623 -15.46992 21.08318 -6.59928 -5.48021
O	 -2.849596330	 -0.219680677	 -0.008484814
H	 -3.283544654	 0.634372392	 0.000000000
H	 -1.904806751	 -0.000000000	 0.000000000
C	 -0.571579469	 -2.359205915	 0.159469586
H	 -0.103610599	 -3.291815089	 -0.145287905
H	 -1.571316643	 -2.296944006	 -0.263008615
H	 -0.685564885	 -2.344168823	 1.240496454
C	 0.207578603	 -1.139369979	 -0.261187003
O	 -0.175823495	 0.000000000	 0.000000000
N	 1.353760860	 -1.381845576	 -0.943362864
H	 1.603450664	 -2.337300615	 -1.120476291
C	 2.214859140	 -0.320577470	 -1.417786572
H	 1.759878836	 0.617941864	 -1.118768665
H	 3.206446814	 -0.393859629	 -0.975460814
H	 2.304858402	 -0.344507622	 -2.502009003
