15
0  1  0  1  0  1   3  12 -7.59008 -7.22914 -7.12816 -7.48910 -7.18506 -7.37392 -5.74273 -5.74622 -5.77724 -7.09659 -9.11604  8.14432 -2.88637 -3.23849
O	 -2.849596330	 -0.219680677	 -0.008484814
H	 -3.283544654	 0.634372392	 0.000000000
H	 -1.904806751	 -0.000000000	 0.000000000
C	 -0.229354000	 -2.359205915	 -0.262999934
H	 0.268558164	 -3.291815089	 -0.010105750
H	 -0.363345732	 -2.296944006	 -1.340036825
H	 -1.222543438	 -2.344168823	 0.178799234
C	 0.524524329	 -1.139369979	 0.201442455
O	 0.106628700	 0.000000000	 0.000000000
N	 1.688397083	 -1.381845576	 0.852977477
H	 1.966626712	 -2.337300615	 0.980658477
C	 2.529809206	 -0.320577470	 1.361498608
H	 2.043361950	 0.617941864	 1.116983060
H	 2.642537700	 -0.393859629	 2.441401603
H	 3.513773006	 -0.344507622	 0.897329040
