15
0  1  0  1  0  1   3  12 -7.81060 -7.30657 -7.23339 -7.73742 -7.30497 -7.57038 -5.25983 -5.26839 -5.30489 -7.05482 -12.80759 15.24792 -4.97161 -4.52353
O	 -2.849596330	 -0.219680677	 -0.008484814
H	 -3.283544654	 0.634372392	 0.000000000
H	 -1.904806751	 -0.000000000	 0.000000000
C	 -0.420919282	 -2.359205915	 -0.262999934
H	 0.076992882	 -3.291815089	 -0.010105750
H	 -0.554911014	 -2.296944006	 -1.340036825
H	 -1.414108720	 -2.344168823	 0.178799234
C	 0.332959047	 -1.139369979	 0.201442455
O	 -0.084936582	 0.000000000	 0.000000000
N	 1.496831801	 -1.381845576	 0.852977477
H	 1.775061430	 -2.337300615	 0.980658477
C	 2.338243924	 -0.320577470	 1.361498608
H	 1.851796668	 0.617941864	 1.116983060
H	 2.450972419	 -0.393859629	 2.441401603
H	 3.322207725	 -0.344507622	 0.897329040
