15
0  1  0  1  0  1   3  12  4.07090  5.28615  5.07164  3.85638  4.96169  4.30041  9.49188  9.47622  9.42343  4.73855 -34.87539 72.50507 -21.85242 -11.03871
O	 -2.849596330	 -0.219680677	 -0.008484814
H	 -3.283544654	 0.634372392	 0.000000000
H	 -1.904806751	 -0.000000000	 0.000000000
C	 -0.955797970	 -2.359205915	 0.159469586
H	 -0.487829100	 -3.291815089	 -0.145287905
H	 -1.955535144	 -2.296944006	 -0.263008615
H	 -1.069783386	 -2.344168823	 1.240496454
C	 -0.176639898	 -1.139369979	 -0.261187003
O	 -0.560041996	 0.000000000	 0.000000000
N	 0.969542359	 -1.381845576	 -0.943362864
H	 1.219232163	 -2.337300615	 -1.120476291
C	 1.830640639	 -0.320577470	 -1.417786572
H	 1.375660335	 0.617941864	 -1.118768665
H	 2.822228313	 -0.393859629	 -0.975460814
H	 1.920639901	 -0.344507622	 -2.502009003
