15
0  1  0  1  0  1   3  12 -7.79015 -7.27442 -7.20365 -7.71938 -7.27692 -7.54814 -5.12288 -5.13138 -5.16794 -7.01819 -12.86015 15.45650 -4.98262 -4.63191
O	 -2.849596330	 -0.219680677	 -0.008484814
H	 -3.283544654	 0.634372392	 0.000000000
H	 -1.904806751	 -0.000000000	 0.000000000
C	 -0.475524843	 -2.359205915	 0.159469586
H	 -0.007555973	 -3.291815089	 -0.145287905
H	 -1.475262017	 -2.296944006	 -0.263008615
H	 -0.589510259	 -2.344168823	 1.240496454
C	 0.303633229	 -1.139369979	 -0.261187003
O	 -0.079768869	 0.000000000	 0.000000000
N	 1.449815486	 -1.381845576	 -0.943362864
H	 1.699505290	 -2.337300615	 -1.120476291
C	 2.310913766	 -0.320577470	 -1.417786572
H	 1.855933462	 0.617941864	 -1.118768665
H	 3.302501440	 -0.393859629	 -0.975460814
H	 2.400913028	 -0.344507622	 -2.502009003
