15
0  1  0  1  0  1   3  12 -6.83155 -6.36167 -6.26570 -6.73559 -6.33141 -6.57850 -4.57275 -4.58186 -4.61368 -6.19813 -12.84780 15.75080 -4.93259 -4.16854
O	 0.944789578	 -0.219680677	 0.008484814
H	 1.378737902	 0.634372392	 -0.000000000
H	 0.000000000	 0.000000000	 0.000000000
C	 -2.407689967	 -1.397203978	 0.059773274
H	 -3.356935071	 -1.926041375	 0.089716568
H	 -1.809694558	 -1.670562928	 0.925518716
H	 -1.846583994	 -1.703795323	 -0.819430748
C	 -2.564290198	 0.101754421	 0.034493531
O	 -1.593956346	 0.857163038	 0.000000000
N	 -3.840555503	 0.558619836	 0.052184028
H	 -4.582242739	 -0.116431286	 0.080723853
C	 -4.161176651	 1.969177396	 0.032497871
H	 -3.221203204	 2.510192252	 0.001030919
H	 -4.749975815	 2.224501802	 -0.846361309
H	 -4.710123258	 2.258479708	 0.926462409
