15
0  1  0  1  0  1   3  12 -4.47137 -3.64367 -3.69896 -4.52666 -3.79253 -4.23003 -0.48066 -0.49505 -0.52606 -3.36977 -22.84835 38.89684 -11.83314 -7.58513
O	 -2.849596330	 -0.219680677	 -0.008484814
H	 -3.283544654	 0.634372392	 0.000000000
H	 -1.904806751	 -0.000000000	 0.000000000
C	 -0.708267203	 -2.359205915	 -0.262999934
H	 -0.210355039	 -3.291815089	 -0.010105750
H	 -0.842258935	 -2.296944006	 -1.340036825
H	 -1.701456641	 -2.344168823	 0.178799234
C	 0.045611126	 -1.139369979	 0.201442455
O	 -0.372284503	 0.000000000	 0.000000000
N	 1.209483880	 -1.381845576	 0.852977477
H	 1.487713509	 -2.337300615	 0.980658477
C	 2.050896003	 -0.320577470	 1.361498608
H	 1.564448747	 0.617941864	 1.116983060
H	 2.163624497	 -0.393859629	 2.441401603
H	 3.034859803	 -0.344507622	 0.897329040
