15
0  1  0  1  0  1   3  12 -2.84907 -1.96971 -1.92413 -2.80348 -2.02213 -2.49190  2.44519  2.43757  2.39479 -1.77614 -21.87564 35.57075 -7.51121 -7.96004
O	 0.944789578	 -0.219680677	 0.008484814
H	 1.378737902	 0.634372392	 -0.000000000
H	 0.000000000	 0.000000000	 0.000000000
C	 -0.014059642	 -2.593820196	 0.059773274
H	 -0.030695572	 -3.680309270	 0.089716568
H	 0.521673858	 -2.212620456	 0.925518716
H	 0.532009239	 -2.261183842	 -0.819430748
C	 -1.390495809	 -1.979960776	 0.034493531
O	 -1.559531936	 -0.761922700	 0.000000000
N	 -2.424285517	 -2.856806244	 0.052184028
H	 -2.210517714	 -3.836651793	 0.080723853
C	 -3.806174771	 -2.429193523	 0.032497871
H	 -3.804720658	 -1.344645211	 0.001030919
H	 -4.321691776	 -2.811446353	 -0.846361309
H	 -4.331191226	 -2.759944074	 0.926462409
