15
0  1  0  1  0  1   3  12 -7.19474 -6.88401 -6.78084 -7.09157 -6.83258 -6.99266 -5.54951 -5.55056 -5.57510 -6.79621 -7.81614  6.07872 -2.23065 -2.82815
O	 -2.849596330	 -0.219680677	 -0.008484814
H	 -3.283544654	 0.634372392	 0.000000000
H	 -1.904806751	 -0.000000000	 0.000000000
C	 -0.187360967	 -2.359205915	 0.159469586
H	 0.280607903	 -3.291815089	 -0.145287905
H	 -1.187098141	 -2.296944006	 -0.263008615
H	 -0.301346383	 -2.344168823	 1.240496454
C	 0.591797105	 -1.139369979	 -0.261187003
O	 0.208395007	 0.000000000	 0.000000000
N	 1.737979362	 -1.381845576	 -0.943362864
H	 1.987669166	 -2.337300615	 -1.120476291
C	 2.599077642	 -0.320577470	 -1.417786572
H	 2.144097338	 0.617941864	 -1.118768665
H	 3.590665316	 -0.393859629	 -0.975460814
H	 2.689076904	 -0.344507622	 -2.502009003
