15
0  1  0  1  0  1   3  12 -5.91890 -5.64602 -5.50876 -5.78165 -5.56182 -5.69114 -4.09383 -4.09261 -4.09790 -5.69712 -6.60096  5.01110 -1.37541 -2.73184
O	 0.944789578	 -0.219680677	 0.008484814
H	 1.378737902	 0.634372392	 -0.000000000
H	 0.000000000	 0.000000000	 0.000000000
C	 -0.598884118	 -2.879541209	 0.059773274
H	 -0.615520048	 -3.966030283	 0.089716568
H	 -0.063150618	 -2.498341469	 0.925518716
H	 -0.052815237	 -2.546904855	 -0.819430748
C	 -1.975320285	 -2.265681789	 0.034493531
O	 -2.144356412	 -1.047643713	 0.000000000
N	 -3.009109993	 -3.142527257	 0.052184028
H	 -2.795342190	 -4.122372805	 0.080723853
C	 -4.390999247	 -2.714914536	 0.032497871
H	 -4.389545134	 -1.630366224	 0.001030919
H	 -4.906516252	 -3.097167365	 -0.846361309
H	 -4.916015702	 -3.045665087	 0.926462409
