15
0  1  0  1  0  1   3  12 -6.90450 -6.40628 -6.29168 -6.78991 -6.36224 -6.62364 -4.19245 -4.19909 -4.23264 -6.27918 -12.80578 15.56080 -4.49565 -4.53854
O	 0.944789578	 -0.219680677	 0.008484814
H	 1.378737902	 0.634372392	 -0.000000000
H	 0.000000000	 0.000000000	 0.000000000
C	 -1.310827758	 -2.359205915	 -0.594163105
H	 -1.808739923	 -3.291815089	 -0.847057289
H	 -1.176836025	 -2.296944006	 0.482873786
H	 -0.317638320	 -2.344168823	 -1.035962273
C	 -2.064706086	 -1.139369979	 -1.058605493
O	 -1.646810458	 0.000000000	 -0.857163038
N	 -3.228578841	 -1.381845576	 -1.710140515
H	 -3.506808470	 -2.337300615	 -1.837821515
C	 -4.069990963	 -0.320577470	 -2.218661647
H	 -3.583543708	 0.617941864	 -1.974146098
H	 -4.182719458	 -0.393859629	 -3.298564640
H	 -5.053954763	 -0.344507622	 -1.754492078
