15
0  1  0  1  0  1   3  12 -5.03283 -4.31945 -4.27271 -4.98609 -4.35525 -4.73296 -1.22514 -1.23393 -1.26475 -4.12846 -19.64150 30.26569 -8.18985 -6.56280
O	 0.944789578	 -0.219680677	 0.008484814
H	 1.378737902	 0.634372392	 -0.000000000
H	 0.000000000	 0.000000000	 0.000000000
C	 -1.073287099	 -2.359205915	 0.602453114
H	 -1.541255970	 -3.291815089	 0.907210606
H	 -0.073549924	 -2.296944006	 1.024931315
H	 -0.959301683	 -2.344168823	 -0.478573754
C	 -1.852445170	 -1.139369979	 1.023109704
O	 -1.469043073	 0.000000000	 0.761922700
N	 -2.998627428	 -1.381845576	 1.705285565
H	 -3.248317232	 -2.337300615	 1.882398992
C	 -3.859725707	 -0.320577470	 2.179709272
H	 -3.404745404	 0.617941864	 1.880691365
H	 -4.851313382	 -0.393859629	 1.737383515
H	 -3.949724969	 -0.344507622	 3.263931704
