15
0  1  0  1  0  1   3  12 -5.03258 -4.32444 -4.28076 -4.98891 -4.36323 -4.73767 -1.27898 -1.28805 -1.31819 -4.12822 -19.58098 30.22874 -8.25942 -6.51657
O	 0.944789578	 -0.219680677	 0.008484814
H	 1.378737902	 0.634372392	 -0.000000000
H	 0.000000000	 0.000000000	 0.000000000
C	 -1.127848818	 -2.359205915	 -0.498922767
H	 -1.625760983	 -3.291815089	 -0.751816951
H	 -0.993857085	 -2.296944006	 0.578114124
H	 -0.134659380	 -2.344168823	 -0.940721935
C	 -1.881727146	 -1.139369979	 -0.963365155
O	 -1.463831518	 0.000000000	 -0.761922700
N	 -3.045599901	 -1.381845576	 -1.614900177
H	 -3.323829530	 -2.337300615	 -1.742581177
C	 -3.887012023	 -0.320577470	 -2.123421309
H	 -3.400564768	 0.617941864	 -1.878905761
H	 -3.999740518	 -0.393859629	 -3.203324303
H	 -4.870975823	 -0.344507622	 -1.659251740
