15
0  1  0  1  0  1   3  12 -7.02686 -6.60698 -6.47552 -6.89541 -6.54011 -6.75846 -4.70793 -4.71296 -4.74364 -6.54302 -10.55731 11.17331 -3.33184 -3.82719
O	 0.944789578	 -0.219680677	 0.008484814
H	 1.378737902	 0.634372392	 -0.000000000
H	 0.000000000	 0.000000000	 0.000000000
C	 -1.348732675	 -2.359205915	 0.745313620
H	 -1.816701546	 -3.291815089	 1.050071112
H	 -0.348995500	 -2.296944006	 1.167791821
H	 -1.234747259	 -2.344168823	 -0.335713248
C	 -2.127890746	 -1.139369979	 1.165970210
O	 -1.744488649	 0.000000000	 0.904783206
N	 -3.274073004	 -1.381845576	 1.848146071
H	 -3.523762808	 -2.337300615	 2.025259498
C	 -4.135171283	 -0.320577470	 2.322569778
H	 -3.680190980	 0.617941864	 2.023551871
H	 -5.126758958	 -0.393859629	 1.880244021
H	 -4.225170545	 -0.344507622	 3.406792210
