15
0  1  0  1  0  1   3  12 -7.02235 -6.60517 -6.47632 -6.89351 -6.54078 -6.75769 -4.73180 -4.73716 -4.76796 -6.53450 -10.53094 11.15322 -3.35813 -3.79865
O	 0.944789578	 -0.219680677	 0.008484814
H	 1.378737902	 0.634372392	 -0.000000000
H	 0.000000000	 0.000000000	 0.000000000
C	 -1.402317228	 -2.359205915	 -0.641783273
H	 -1.900229393	 -3.291815089	 -0.894677457
H	 -1.268325495	 -2.296944006	 0.435253618
H	 -0.409127790	 -2.344168823	 -1.083582441
C	 -2.156195556	 -1.139369979	 -1.106225661
O	 -1.738299928	 0.000000000	 -0.904783206
N	 -3.320068311	 -1.381845576	 -1.757760683
H	 -3.598297940	 -2.337300615	 -1.885441683
C	 -4.161480433	 -0.320577470	 -2.266281815
H	 -3.675033178	 0.617941864	 -2.021766267
H	 -4.274208928	 -0.393859629	 -3.346184809
H	 -5.145444233	 -0.344507622	 -1.802112246
