15
0  1  0  1  0  1   3  12  5.85125  6.56414  6.62056  5.90768  6.53160  6.15968 11.58272 11.58591 11.55934  6.75469 -12.94823 29.65939 -3.49925 -6.45722
O	 -2.849596330	 -0.219680677	 -0.008484814
H	 -3.283544654	 0.634372392	 0.000000000
H	 -1.904806751	 -0.000000000	 0.000000000
C	 -0.923122727	 -1.831897495	 -0.059773274
H	 -0.906486797	 -2.918386569	 -0.089716568
H	 -1.458856226	 -1.450697755	 -0.925518716
H	 -1.469191608	 -1.499261141	 0.819430748
C	 0.453313441	 -1.218038075	 -0.034493531
O	 0.622349567	 0.000000000	 0.000000000
N	 1.487103148	 -2.094883543	 -0.052184028
H	 1.273335345	 -3.074729093	 -0.080723853
C	 2.868992402	 -1.667270823	 -0.032497871
H	 2.867538289	 -0.582722510	 -0.001030919
H	 3.384509407	 -2.049523653	 0.846361309
H	 3.394008857	 -1.998021374	 -0.926462409
