15
0  1  0  1  0  1   3  12 -6.47279 -6.23557 -6.13158 -6.36879 -6.16660 -6.29206 -5.50682 -5.50926 -5.52956 -6.16792 -7.28157  5.35317 -2.08778 -2.15173
O	 -2.849596330	 -0.219680677	 -0.008484814
H	 -3.283544654	 0.634372392	 0.000000000
H	 -1.904806751	 -0.000000000	 0.000000000
C	 0.956612978	 -2.254367015	 -0.059773274
H	 1.905858082	 -2.783204414	 -0.089716568
H	 0.358617570	 -2.527725965	 -0.925518716
H	 0.395507005	 -2.560958361	 0.819430748
C	 1.113213210	 -0.755408617	 -0.034493531
O	 0.142879357	 0.000000000	 0.000000000
N	 2.389478514	 -0.298543202	 -0.052184028
H	 3.131165750	 -0.973594325	 -0.080723853
C	 2.710099662	 1.112014357	 -0.032497871
H	 1.770126215	 1.653029215	 -0.001030919
H	 3.298898826	 1.367338764	 0.846361309
H	 3.259046269	 1.401316669	 -0.926462409
