15
0  1  0  1  0  1   3  12 -6.52803 -6.23883 -6.10579 -6.39499 -6.15753 -6.30233 -4.89751 -4.89987 -4.91771 -6.25547 -7.38840  5.73738 -1.90591 -2.69853
O	 0.944789578	 -0.219680677	 0.008484814
H	 1.378737902	 0.634372392	 -0.000000000
H	 0.000000000	 0.000000000	 0.000000000
C	 -1.532363059	 -2.359205915	 0.840553958
H	 -2.000331930	 -3.291815089	 1.145311450
H	 -0.532625884	 -2.296944006	 1.263032159
H	 -1.418377643	 -2.344168823	 -0.240472910
C	 -2.311521130	 -1.139369979	 1.261210548
O	 -1.928119033	 0.000000000	 1.000023544
N	 -3.457703388	 -1.381845576	 1.943386409
H	 -3.707393192	 -2.337300615	 2.120499836
C	 -4.318801667	 -0.320577470	 2.417810116
H	 -3.863821364	 0.617941864	 2.118792209
H	 -5.310389342	 -0.393859629	 1.975484359
H	 -4.408800929	 -0.344507622	 3.502032548
