15
0  1  0  1  0  1   3  12 -6.12747 -5.93469 -5.83396 -6.02674 -5.86253 -5.96344 -5.35771 -5.35801 -5.37218 -5.90250 -6.29495  3.78249 -1.59553 -1.79451
O	 -2.849596330	 -0.219680677	 -0.008484814
H	 -3.283544654	 0.634372392	 0.000000000
H	 -1.904806751	 -0.000000000	 0.000000000
C	 1.054121841	 -2.254367015	 -0.059773274
H	 2.003366945	 -2.783204414	 -0.089716568
H	 0.456126433	 -2.527725965	 -0.925518716
H	 0.493015868	 -2.560958361	 0.819430748
C	 1.210722073	 -0.755408617	 -0.034493531
O	 0.240388220	 0.000000000	 0.000000000
N	 2.486987377	 -0.298543202	 -0.052184028
H	 3.228674613	 -0.973594325	 -0.080723853
C	 2.807608525	 1.112014357	 -0.032497871
H	 1.867635078	 1.653029215	 -0.001030919
H	 3.396407689	 1.367338764	 0.846361309
H	 3.356555132	 1.401316669	 -0.926462409
