15
0  1  0  1  0  1   3  12 -6.54257 -6.26926 -6.15137 -6.42467 -6.19711 -6.33720 -5.17991 -5.18322 -5.20343 -6.23703 -7.49176  5.83049 -2.11963 -2.45613
O	 0.944789578	 -0.219680677	 0.008484814
H	 1.378737902	 0.634372392	 -0.000000000
H	 0.000000000	 0.000000000	 0.000000000
C	 -2.673349358	 -1.254343471	 0.059773274
H	 -3.622594462	 -1.783180869	 0.089716568
H	 -2.075353949	 -1.527702421	 0.925518716
H	 -2.112243385	 -1.560934817	 -0.819430748
C	 -2.829949589	 0.244614927	 0.034493531
O	 -1.859615737	 1.000023544	 0.000000000
N	 -4.106214894	 0.701480342	 0.052184028
H	 -4.847902130	 0.026429220	 0.080723853
C	 -4.426836042	 2.112037902	 0.032497871
H	 -3.486862595	 2.653052759	 0.001030919
H	 -5.015635206	 2.367362309	 -0.846361309
H	 -4.975782649	 2.401340214	 0.926462409
