15
0  1  0  1  0  1   3  12  5.35048  6.64916  6.49908  5.20040  6.38113  5.67469 12.66236 12.65211 12.59562  6.60389 -35.08110 67.16558 -14.02465 -11.45594
O	 0.944789578	 -0.219680677	 0.008484814
H	 1.378737902	 0.634372392	 -0.000000000
H	 0.000000000	 0.000000000	 0.000000000
C	 0.180881850	 -2.498579859	 0.059773274
H	 0.164245920	 -3.585068932	 0.089716568
H	 0.716615350	 -2.117380118	 0.925518716
H	 0.726950731	 -2.165943505	 -0.819430748
C	 -1.195554317	 -1.884720438	 0.034493531
O	 -1.364590444	 -0.666682363	 0.000000000
N	 -2.229344025	 -2.761565906	 0.052184028
H	 -2.015576222	 -3.741411455	 0.080723853
C	 -3.611233279	 -2.333953185	 0.032497871
H	 -3.609779166	 -1.249404874	 0.001030919
H	 -4.126750284	 -2.716206016	 -0.846361309
H	 -4.136249734	 -2.664703736	 0.926462409
