15
0  1  0  1  0  1   3  12 -4.45490 -3.61145 -3.67151 -4.51496 -3.76674 -4.21232 -0.31178 -0.32623 -0.35708 -3.33228 -22.95712 39.17737 -11.82364 -7.72889
O	 -2.849596330	 -0.219680677	 -0.008484814
H	 -3.283544654	 0.634372392	 0.000000000
H	 -1.904806751	 -0.000000000	 0.000000000
C	 -0.763688719	 -2.359205915	 0.159469586
H	 -0.295719849	 -3.291815089	 -0.145287905
H	 -1.763425893	 -2.296944006	 -0.263008615
H	 -0.877674135	 -2.344168823	 1.240496454
C	 0.015469353	 -1.139369979	 -0.261187003
O	 -0.367932745	 0.000000000	 0.000000000
N	 1.161651610	 -1.381845576	 -0.943362864
H	 1.411341414	 -2.337300615	 -1.120476291
C	 2.022749890	 -0.320577470	 -1.417786572
H	 1.567769586	 0.617941864	 -1.118768665
H	 3.014337564	 -0.393859629	 -0.975460814
H	 2.112749152	 -0.344507622	 -2.502009003
