15
0  1  0  1  0  1   3  12 -7.82350 -7.39571 -7.30423 -7.73202 -7.36840 -7.59357 -5.64704 -5.65303 -5.68848 -7.20532 -10.75311 11.14654 -3.77555 -3.82321
O	 -2.849596330	 -0.219680677	 -0.008484814
H	 -3.283544654	 0.634372392	 0.000000000
H	 -1.904806751	 -0.000000000	 0.000000000
C	 -0.325136641	 -2.359205915	 -0.262999934
H	 0.172775523	 -3.291815089	 -0.010105750
H	 -0.459128373	 -2.296944006	 -1.340036825
H	 -1.318326079	 -2.344168823	 0.178799234
C	 0.428741688	 -1.139369979	 0.201442455
O	 0.010846059	 0.000000000	 0.000000000
N	 1.592614442	 -1.381845576	 0.852977477
H	 1.870844071	 -2.337300615	 0.980658477
C	 2.434026565	 -0.320577470	 1.361498608
H	 1.947579309	 0.617941864	 1.116983060
H	 2.546755059	 -0.393859629	 2.441401603
H	 3.417990365	 -0.344507622	 0.897329040
