12
0  1  0  1  0  1   6   6 -4.45279 -4.06699 -4.09647 -4.48227 -4.15160 -4.35801 -2.01119 -2.02168 -2.05782 -3.95207 -10.24009 13.89497 -3.96618 -3.64077
O	 -2.889644975	 -0.001891768	 -0.160578977
H	 -1.936742529	 -0.000000000	 -0.000000000
C	 -3.341572000	 1.326838321	 -0.000000000
H	 -4.409636043	 1.334387024	 -0.200915476
H	 -3.186353166	 1.702736450	 1.014121917
H	 -2.862839850	 2.019012435	 -0.697416847
O	 -0.134717183	 0.000000000	 0.000000000
H	 -0.030639468	 -0.577163021	 0.760132709
C	 0.906886110	 -0.304372756	 -0.923538522
H	 0.761455507	 0.344133402	 -1.781097662
H	 1.891411551	 -0.106967060	 -0.500276726
H	 0.860975756	 -1.338862859	 -1.263046335
