12
0  1  0  1  0  1   6   6 -5.58948 -5.19455 -5.25443 -5.64936 -5.31828 -5.52736 -3.07871 -3.08860 -3.13050 -5.10713 -9.66581 11.75661 -3.56854 -3.62939
O	 -2.889644975	 -0.001891768	 -0.160578977
H	 -1.936742529	 -0.000000000	 -0.000000000
C	 -3.341572000	 1.326838321	 -0.000000000
H	 -4.409636043	 1.334387024	 -0.200915476
H	 -3.186353166	 1.702736450	 1.014121917
H	 -2.862839850	 2.019012435	 -0.697416847
O	 -0.104172551	 0.000000000	 0.000000000
H	 0.591614364	 -0.264737688	 0.606255379
C	 0.429312386	 -0.043451713	 -1.320609468
H	 -0.375347645	 0.240808011	 -1.990562167
H	 1.252281353	 0.659634105	 -1.446316721
H	 0.765113477	 -1.044103142	 -1.591676682
