12
0  1  0  1  0  1   6   6 -4.79427 -4.53533 -4.51682 -4.77576 -4.55861 -4.69706 -3.08616 -3.09089 -3.12148 -4.51327 -6.82217  6.93209 -2.14059 -2.48260
O	 -2.889644975	 -0.001891768	 -0.160578977
H	 -1.936742529	 -0.000000000	 -0.000000000
C	 -3.341572000	 1.326838321	 -0.000000000
H	 -4.409636043	 1.334387024	 -0.200915476
H	 -3.186353166	 1.702736450	 1.014121917
H	 -2.862839850	 2.019012435	 -0.697416847
O	 0.065507855	 0.000000000	 0.000000000
H	 0.169585570	 -0.577163021	 0.760132709
C	 1.107111148	 -0.304372756	 -0.923538522
H	 0.961680545	 0.344133402	 -1.781097662
H	 2.091636589	 -0.106967060	 -0.500276726
H	 1.061200794	 -1.338862859	 -1.263046335
