12
0  1  0  1  0  1   6   6 -5.16119 -4.81670 -4.80412 -5.14861 -4.86412 -5.04361 -2.61925 -2.62122 -2.65682 -4.92477 -8.32911  9.06769 -2.30179 -3.36156
O	 0.952902446	 -0.001891768	 0.160578977
H	 0.000000000	 0.000000000	 0.000000000
C	 1.404829471	 1.326838321	 0.000000000
H	 2.472893514	 1.334387024	 0.200915476
H	 1.249610637	 1.702736450	 -1.014121917
H	 0.926097320	 2.019012435	 0.697416847
O	 -1.779460866	 0.000000000	 0.919952701
H	 -2.489793960	 -0.577163021	 0.630020292
C	 -1.500454690	 -0.304372756	 2.283776875
H	 -0.685071390	 0.344133402	 2.586609849
H	 -2.359272879	 -0.106967060	 2.924770020
H	 -1.183477123	 -1.338862859	 2.413771249
