12
0  1  0  1  0  1   6   6 -3.30480 -2.97213 -2.94202 -3.27469 -3.01507 -3.17229 -0.54444 -0.55086 -0.56777 -2.92592 -5.00976  6.80791 -1.49342 -3.23065
O	 -2.889644975	 -0.001891768	 -0.160578977
H	 -1.936742529	 -0.000000000	 -0.000000000
C	 -3.341572000	 1.326838321	 -0.000000000
H	 -4.409636043	 1.334387024	 -0.200915476
H	 -3.186353166	 1.702736450	 1.014121917
H	 -2.862839850	 2.019012435	 -0.697416847
O	 0.244943654	 0.000000000	 0.000000000
H	 0.955276748	 -0.577163021	 0.289932409
C	 -0.034062521	 -0.304372756	 -1.363824173
H	 -0.849445823	 0.344133402	 -1.666657147
H	 0.824755667	 -0.106967060	 -2.004817318
H	 -0.351040089	 -1.338862859	 -1.493818547
