12
0  1  0  1  0  1   6   6 -4.63047 -4.42112 -4.39368 -4.60303 -4.42962 -4.54014 -3.21066 -3.21280 -3.23715 -4.43564 -5.66985  4.88217 -1.59054 -2.05742
O	 -2.889644975	 -0.001891768	 -0.160578977
H	 -1.936742529	 -0.000000000	 -0.000000000
C	 -3.341572000	 1.326838321	 -0.000000000
H	 -4.409636043	 1.334387024	 -0.200915476
H	 -3.186353166	 1.702736450	 1.014121917
H	 -2.862839850	 2.019012435	 -0.697416847
O	 0.165620374	 0.000000000	 0.000000000
H	 0.269698089	 -0.577163021	 0.760132709
C	 1.207223667	 -0.304372756	 -0.923538522
H	 1.061793064	 0.344133402	 -1.781097662
H	 2.191749108	 -0.106967060	 -0.500276726
H	 1.161313313	 -1.338862859	 -1.263046335
