12
0  1  0  1  0  1   6   6 -5.13627 -4.70657 -4.74207 -5.17176 -4.81170 -5.03772 -1.96663 -1.97075 -2.01309 -4.73606 -10.48425 13.44789 -3.41958 -4.28012
O	 0.952902446	 -0.001891768	 0.160578977
H	 0.000000000	 0.000000000	 0.000000000
C	 1.404829471	 1.326838321	 0.000000000
H	 2.472893514	 1.334387024	 0.200915476
H	 1.249610637	 1.702736450	 -1.014121917
H	 0.926097320	 2.019012435	 0.697416847
O	 -1.651791172	 0.871534138	 0.000000000
H	 -2.347578087	 0.606796450	 -0.606255379
C	 -2.185276108	 0.828082425	 1.320609468
H	 -1.380616078	 1.112342150	 1.990562167
H	 -3.008245075	 1.531168243	 1.446316721
H	 -2.521077199	 -0.172569004	 1.591676682
