12
0  1  0  1  0  1   6   6 -3.16806 -2.95256 -2.90982 -3.12532 -2.96771 -3.06155 -1.25305 -1.25520 -1.26166 -2.94150 -3.22048  3.26713 -0.78926 -2.19890
O	 -2.889644975	 -0.001891768	 -0.160578977
H	 -1.936742529	 -0.000000000	 -0.000000000
C	 -3.341572000	 1.326838321	 -0.000000000
H	 -4.409636043	 1.334387024	 -0.200915476
H	 -3.186353166	 1.702736450	 1.014121917
H	 -2.862839850	 2.019012435	 -0.697416847
O	 0.474594832	 0.000000000	 0.000000000
H	 1.184927926	 -0.577163021	 0.289932409
C	 0.195588657	 -0.304372756	 -1.363824173
H	 -0.619794645	 0.344133402	 -1.666657147
H	 1.054406845	 -0.106967060	 -2.004817318
H	 -0.121388911	 -1.338862859	 -1.493818547
