12
0  1  0  1  0  1   6   6  5.52863  6.54564  6.04691  5.02990  5.94490  5.39347 11.05885 11.03371 10.98052  5.90542 -29.36865 62.45969 -17.81703 -9.36858
O	 -2.889644975	 -0.001891768	 -0.160578977
H	 -1.936742529	 -0.000000000	 -0.000000000
C	 -3.341572000	 1.326838321	 -0.000000000
H	 -4.409636043	 1.334387024	 -0.200915476
H	 -3.186353166	 1.702736450	 1.014121917
H	 -2.862839850	 2.019012435	 -0.697416847
O	 -0.586427809	 0.000000000	 0.000000000
H	 0.109359106	 -0.264737688	 0.606255379
C	 -0.052942872	 -0.043451713	 -1.320609468
H	 -0.857602903	 0.240808011	 -1.990562167
H	 0.770026095	 0.659634105	 -1.446316721
H	 0.282858219	 -1.044103142	 -1.591676682
