12
0  1  0  1  0  1   6   6 -5.02857 -4.79530 -4.77373 -5.00701 -4.82120 -4.93851 -3.12577 -3.12217 -3.14560 -4.89935 -5.66055  4.61032 -1.37036 -2.47877
O	 0.952902446	 -0.001891768	 0.160578977
H	 0.000000000	 0.000000000	 0.000000000
C	 1.404829471	 1.326838321	 0.000000000
H	 2.472893514	 1.334387024	 0.200915476
H	 1.249610637	 1.702736450	 -1.014121917
H	 0.926097320	 2.019012435	 0.697416847
O	 -1.927089700	 1.016789827	 0.000000000
H	 -2.622876615	 0.752052139	 -0.606255379
C	 -2.460574636	 0.973338114	 1.320609468
H	 -1.655914606	 1.257597839	 1.990562167
H	 -3.283543603	 1.676423932	 1.446316721
H	 -2.796375727	 -0.027313315	 1.591676682
