12
0  1  0  1  0  1   6   6 -5.17585 -4.95131 -4.95033 -5.17487 -4.99499 -5.10994 -3.67869 -3.68170 -3.70766 -4.98268 -5.58669  4.19801 -1.47819 -2.11582
O	 -2.889644975	 -0.001891768	 -0.160578977
H	 -1.936742529	 -0.000000000	 -0.000000000
C	 -3.341572000	 1.326838321	 -0.000000000
H	 -4.409636043	 1.334387024	 -0.200915476
H	 -3.186353166	 1.702736450	 1.014121917
H	 -2.862839850	 2.019012435	 -0.697416847
O	 0.185180603	 0.000000000	 0.000000000
H	 0.880967518	 -0.264737688	 0.606255379
C	 0.718665540	 -0.043451713	 -1.320609468
H	 -0.085994491	 0.240808011	 -1.990562167
H	 1.541634507	 0.659634105	 -1.446316721
H	 1.054466631	 -1.044103142	 -1.591676682
