12
0  1  0  1  0  1   6   6 -4.98978 -4.57886 -4.61052 -5.02145 -4.67138 -4.88953 -2.26650 -2.27829 -2.31567 -4.51982 -10.58456 13.33419 -3.55816 -3.71128
O	 0.952902446	 -0.001891768	 0.160578977
H	 0.000000000	 0.000000000	 0.000000000
C	 1.404829471	 1.326838321	 0.000000000
H	 2.472893514	 1.334387024	 0.200915476
H	 1.249610637	 1.702736450	 -1.014121917
H	 0.926097320	 2.019012435	 0.697416847
O	 -1.628913916	 -0.871534138	 0.000000000
H	 -1.747537810	 -1.606472127	 -0.606255379
C	 -1.858026096	 -1.355271503	 1.320609468
H	 -1.701872224	 -0.516285613	 1.990562167
H	 -2.878400759	 -1.716440626	 1.446316721
H	 -1.159337084	 -2.146409493	 1.591676682
