12
0  1  0  1  0  1   6   6 -3.00777 -2.36976 -2.49575 -3.13376 -2.57854 -2.91780  1.33279  1.32195  1.27864 -2.45614 -16.97079 26.77347 -6.19352 -6.06530
O	 0.578279106	 -0.001891768	 0.354253230
H	 -0.374623340	 0.000000000	 0.193674253
C	 1.030206131	 1.326838321	 0.193674253
H	 2.098270174	 1.334387024	 0.394589729
H	 0.874987297	 1.702736450	 -0.820447664
H	 0.551473980	 2.019012435	 0.891091100
O	 -1.873116701	 0.000000000	 0.968371264
H	 -2.583449795	 -0.577163021	 0.678438855
C	 -1.594110525	 -0.304372756	 2.332195438
H	 -0.778727225	 0.344133402	 2.635028412
H	 -2.452928714	 -0.106967060	 2.973188583
H	 -1.277132958	 -1.338862859	 2.462189812
