12
0  1  0  1  0  1   6   6 -4.93917 -4.71208 -4.68396 -4.91106 -4.73095 -4.84512 -3.15090 -3.15427 -3.17810 -4.82136 -5.71912  4.60389 -1.46013 -2.24599
O	 -2.889644975	 -0.001891768	 -0.160578977
H	 -1.936742529	 -0.000000000	 -0.000000000
C	 -3.341572000	 1.326838321	 -0.000000000
H	 -4.409636043	 1.334387024	 -0.200915476
H	 -3.186353166	 1.702736450	 1.014121917
H	 -2.862839850	 2.019012435	 -0.697416847
O	 0.230574237	 0.000000000	 0.000000000
H	 0.349198131	 -0.734937988	 0.606255379
C	 0.459686418	 -0.483737364	 -1.320609468
H	 0.303532545	 0.355248526	 -1.990562167
H	 1.480061081	 -0.844906487	 -1.446316721
H	 -0.239002594	 -1.274875354	 -1.591676682
