12
0  1  0  1  0  1   6   6  3.89485  4.84932  4.56162  3.60714  4.43970  3.94407 10.46157 10.43740 10.40348  4.78305 -18.91816 40.84637 -8.44308 -8.70208
O	 -2.889644975	 -0.001891768	 -0.160578977
H	 -1.936742529	 -0.000000000	 -0.000000000
C	 -3.341572000	 1.326838321	 -0.000000000
H	 -4.409636043	 1.334387024	 -0.200915476
H	 -3.186353166	 1.702736450	 1.014121917
H	 -2.862839850	 2.019012435	 -0.697416847
O	 -0.329184289	 0.000000000	 0.000000000
H	 0.381148805	 -0.577163021	 0.289932409
C	 -0.608190464	 -0.304372756	 -1.363824173
H	 -1.423573766	 0.344133402	 -1.666657147
H	 0.250627724	 -0.106967060	 -2.004817318
H	 -0.925168032	 -1.338862859	 -1.493818547
