12
0  1  0  1  0  1   6   6 -5.19137 -4.71908 -4.82375 -5.29603 -4.89510 -5.14437 -2.22915 -2.24217 -2.28361 -4.58810 -11.87127 16.49932 -4.85304 -4.36310
O	 -2.889644975	 -0.001891768	 -0.160578977
H	 -1.936742529	 -0.000000000	 -0.000000000
C	 -3.341572000	 1.326838321	 -0.000000000
H	 -4.409636043	 1.334387024	 -0.200915476
H	 -3.186353166	 1.702736450	 1.014121917
H	 -2.862839850	 2.019012435	 -0.697416847
O	 -0.200623603	 0.000000000	 0.000000000
H	 0.495163312	 -0.264737688	 0.606255379
C	 0.332861334	 -0.043451713	 -1.320609468
H	 -0.471798697	 0.240808011	 -1.990562167
H	 1.155830301	 0.659634105	 -1.446316721
H	 0.668662425	 -1.044103142	 -1.591676682
