12
0  1  0  1  0  1   6   6 -5.40809 -5.07007 -5.06613 -5.40415 -5.12848 -5.30251 -2.93374 -2.94408 -2.97884 -5.13828 -8.37842  9.06484 -2.61631 -3.20838
O	 -2.889644975	 -0.001891768	 -0.160578977
H	 -1.936742529	 -0.000000000	 -0.000000000
C	 -3.341572000	 1.326838321	 -0.000000000
H	 -4.409636043	 1.334387024	 -0.200915476
H	 -3.186353166	 1.702736450	 1.014121917
H	 -2.862839850	 2.019012435	 -0.697416847
O	 0.033545440	 0.000000000	 0.000000000
H	 0.152169334	 -0.734937988	 0.606255379
C	 0.262657621	 -0.483737364	 -1.320609468
H	 0.106503748	 0.355248526	 -1.990562167
H	 1.283032284	 -0.844906487	 -1.446316721
H	 -0.436031391	 -1.274875354	 -1.591676682
