12
0  1  0  1  0  1   6   6 -5.10862 -4.83353 -4.81736 -5.09245 -4.86476 -5.00929 -3.20139 -3.20760 -3.23817 -4.86150 -6.96278  6.51104 -1.89339 -2.51637
O	 0.952902446	 -0.001891768	 0.160578977
H	 0.000000000	 0.000000000	 0.000000000
C	 1.404829471	 1.326838321	 0.000000000
H	 2.472893514	 1.334387024	 0.200915476
H	 1.249610637	 1.702736450	 -1.014121917
H	 0.926097320	 2.019012435	 0.697416847
O	 -1.809904351	 -0.968371264	 0.000000000
H	 -1.928528245	 -1.703309253	 -0.606255379
C	 -2.039016531	 -1.452108629	 1.320609468
H	 -1.882862659	 -0.613122739	 1.990562167
H	 -3.059391194	 -1.813277752	 1.446316721
H	 -1.340327519	 -2.243246619	 1.591676682
