12
0  1  0  1  0  1   6   6 -2.93090 -2.32487 -2.47274 -3.07878 -2.54794 -2.86835  0.90572  0.88775  0.85571 -2.21764 -16.86394 27.05837 -6.88737 -5.52469
O	 0.590921576	 -0.195566021	 0.160578977
H	 -0.361980870	 -0.193674253	 0.000000000
C	 1.042848601	 1.133164068	 0.000000000
H	 2.110912644	 1.140712771	 0.200915476
H	 0.887629767	 1.509062197	 -1.014121917
H	 0.564116450	 1.825338182	 0.697416847
O	 -1.809904351	 -0.968371264	 0.000000000
H	 -1.928528245	 -1.703309253	 -0.606255379
C	 -2.039016531	 -1.452108629	 1.320609468
H	 -1.882862659	 -0.613122739	 1.990562167
H	 -3.059391194	 -1.813277752	 1.446316721
H	 -1.340327519	 -2.243246619	 1.591676682
