12
0  1  0  1  0  1   6   6  4.96950  5.83080  5.47774  4.61643  5.39747  4.92891  9.71794  9.70179  9.66143  5.49195 -25.98446 54.45674 -14.92264 -8.05769
O	 -2.889644975	 -0.001891768	 -0.160578977
H	 -1.936742529	 -0.000000000	 -0.000000000
C	 -3.341572000	 1.326838321	 -0.000000000
H	 -4.409636043	 1.334387024	 -0.200915476
H	 -3.186353166	 1.702736450	 1.014121917
H	 -2.862839850	 2.019012435	 -0.697416847
O	 -0.535167260	 0.000000000	 0.000000000
H	 -0.431089545	 -0.577163021	 0.760132709
C	 0.506436033	 -0.304372756	 -0.923538522
H	 0.361005430	 0.344133402	 -1.781097662
H	 1.490961474	 -0.106967060	 -0.500276726
H	 0.460525679	 -1.338862859	 -1.263046335
