12
0  1  0  1  0  1   6   6 -5.09961 -4.78376 -4.77829 -5.09414 -4.82543 -4.99750 -2.99537 -3.00144 -3.04106 -4.80582 -8.08281  8.73437 -2.53529 -2.92208
O	 0.952902446	 -0.001891768	 0.160578977
H	 0.000000000	 0.000000000	 0.000000000
C	 1.404829471	 1.326838321	 0.000000000
H	 2.472893514	 1.334387024	 0.200915476
H	 1.249610637	 1.702736450	 -1.014121917
H	 0.926097320	 2.019012435	 0.697416847
O	 -1.732285537	 0.000000000	 -0.919952701
H	 -1.836363252	 -0.577163021	 -1.680085411
C	 -2.773888829	 -0.304372756	 0.003585821
H	 -2.628458228	 0.344133402	 0.861144960
H	 -3.758414271	 -0.106967060	 -0.419675975
H	 -2.727978476	 -1.338862859	 0.343093634
