12
0  1  0  1  0  1   6   6 -5.31416 -5.08948 -5.07936 -5.30404 -5.12004 -5.23836 -3.73947 -3.74121 -3.76951 -5.16874 -6.07655  4.63530 -1.56847 -2.15903
O	 -0.636134928	 -0.023282411	 0.280599321
H	 0.308097372	 -0.047078748	 0.076463691
C	 -1.152065407	 -1.311287783	 0.015259549
H	 -2.209945023	 -1.296265392	 0.263955863
H	 -1.056610240	 -1.592670859	 -1.036190606
H	 -0.674835746	 -2.086272765	 0.620511449
O	 2.434558673	 -0.130963649	 -0.022537958
H	 2.903347983	 0.483420875	 -0.592203912
C	 2.943392599	 0.026055289	 1.299179366
H	 2.389823519	 -0.662141138	 1.929310246
H	 4.002388701	 -0.224383610	 1.355902507
H	 2.790952961	 1.036749342	 1.677071912
