12
0  1  0  1  0  1   6   6 -5.34605 -4.99327 -4.99827 -5.35104 -5.05975 -5.24425 -2.66517 -2.66596 -2.70411 -5.05361 -8.42766  9.43287 -2.49935 -3.55947
O	 0.952902446	 -0.001891768	 0.160578977
H	 0.000000000	 0.000000000	 0.000000000
C	 1.404829471	 1.326838321	 0.000000000
H	 2.472893514	 1.334387024	 0.200915476
H	 1.249610637	 1.702736450	 -1.014121917
H	 0.926097320	 2.019012435	 0.697416847
O	 -1.743557348	 0.919952701	 0.000000000
H	 -2.439344263	 0.655215013	 -0.606255379
C	 -2.277042284	 0.876500988	 1.320609468
H	 -1.472382254	 1.160760713	 1.990562167
H	 -3.100011251	 1.579586806	 1.446316721
H	 -2.612843375	 -0.124150441	 1.591676682
