12
0  1  0  1  0  1   6   6 -3.23823 -2.67383 -2.80088 -3.36527 -2.86857 -3.17227  0.27850  0.26389  0.22467 -2.63900 -15.90216 25.21843 -6.70315 -5.25213
O	 0.588210754	 -0.001891768	 -0.033095276
H	 -0.364691692	 0.000000000	 -0.193674253
C	 1.040137779	 1.326838321	 -0.193674253
H	 2.108201822	 1.334387024	 0.007241223
H	 0.884918945	 1.702736450	 -1.207796170
H	 0.561405628	 2.019012435	 0.503742594
O	 -1.823458460	 0.000000000	 -0.968371264
H	 -1.927536175	 -0.577163021	 -1.728503974
C	 -2.865061752	 -0.304372756	 -0.044832742
H	 -2.719631151	 0.344133402	 0.812726397
H	 -3.849587194	 -0.106967060	 -0.468094538
H	 -2.819151399	 -1.338862859	 0.294675071
