12
0  1  0  1  0  1   6   6 -5.46872 -5.19604 -5.20632 -5.47899 -5.25680 -5.39920 -3.68414 -3.68905 -3.72211 -5.19580 -6.63006  5.92976 -1.96890 -2.52659
O	 -2.889644975	 -0.001891768	 -0.160578977
H	 -1.936742529	 -0.000000000	 -0.000000000
C	 -3.341572000	 1.326838321	 -0.000000000
H	 -4.409636043	 1.334387024	 -0.200915476
H	 -3.186353166	 1.702736450	 1.014121917
H	 -2.862839850	 2.019012435	 -0.697416847
O	 0.088729551	 0.000000000	 0.000000000
H	 0.784516466	 -0.264737688	 0.606255379
C	 0.622214488	 -0.043451713	 -1.320609468
H	 -0.182445543	 0.240808011	 -1.990562167
H	 1.445183455	 0.659634105	 -1.446316721
H	 0.958015579	 -1.044103142	 -1.591676682
