12
0  1  0  1  0  1   6   6 -1.37252 -0.74073 -0.82221 -1.45399 -0.92367 -1.24435  3.31893  3.30219  3.26880 -0.63240 -10.77208 20.09204 -4.12669 -5.82566
O	 -2.889644975	 -0.001891768	 -0.160578977
H	 -1.936742529	 -0.000000000	 -0.000000000
C	 -3.341572000	 1.326838321	 -0.000000000
H	 -4.409636043	 1.334387024	 -0.200915476
H	 -3.186353166	 1.702736450	 1.014121917
H	 -2.862839850	 2.019012435	 -0.697416847
O	 -0.099533111	 0.000000000	 0.000000000
H	 0.610799983	 -0.577163021	 0.289932409
C	 -0.378539286	 -0.304372756	 -1.363824173
H	 -1.193922588	 0.344133402	 -1.666657147
H	 0.480278902	 -0.106967060	 -2.004817318
H	 -0.695516854	 -1.338862859	 -1.493818547
