12
0  1  0  1  0  1   6   6 -4.96787 -4.58317 -4.60464 -4.98934 -4.65817 -4.86786 -2.46081 -2.46958 -2.51280 -4.56963 -10.01150 12.46582 -3.47916 -3.54479
O	 0.952902446	 -0.001891768	 0.160578977
H	 0.000000000	 0.000000000	 0.000000000
C	 1.404829471	 1.326838321	 0.000000000
H	 2.472893514	 1.334387024	 0.200915476
H	 1.249610637	 1.702736450	 -1.014121917
H	 0.926097320	 2.019012435	 0.697416847
O	 -1.641112614	 0.000000000	 -0.871534138
H	 -1.745190329	 -0.577163021	 -1.631666848
C	 -2.682715906	 -0.304372756	 0.052004384
H	 -2.537285305	 0.344133402	 0.909563523
H	 -3.667241348	 -0.106967060	 -0.371257412
H	 -2.636805553	 -1.338862859	 0.391512197
