12
0  1  0  1  0  1   6   6 -3.30256 -3.03525 -2.99541 -3.26273 -3.06045 -3.18200 -1.00163 -1.00564 -1.01657 -3.00944 -3.98738  4.72190 -1.08117 -2.66279
O	 -2.889644975	 -0.001891768	 -0.160578977
H	 -1.936742529	 -0.000000000	 -0.000000000
C	 -3.341572000	 1.326838321	 -0.000000000
H	 -4.409636043	 1.334387024	 -0.200915476
H	 -3.186353166	 1.702736450	 1.014121917
H	 -2.862839850	 2.019012435	 -0.697416847
O	 0.359769243	 0.000000000	 0.000000000
H	 1.070102337	 -0.577163021	 0.289932409
C	 0.080763068	 -0.304372756	 -1.363824173
H	 -0.734620234	 0.344133402	 -1.666657147
H	 0.939581256	 -0.106967060	 -2.004817318
H	 -0.236214500	 -1.338862859	 -1.493818547
