12
0  1  0  1  0  1   6   6 -4.44427 -4.26463 -4.23136 -4.41099 -4.27231 -4.35797 -2.98268 -2.98077 -2.99377 -4.39878 -4.58673  3.01154 -0.92247 -1.90112
O	 0.952902446	 -0.001891768	 0.160578977
H	 0.000000000	 0.000000000	 0.000000000
C	 1.404829471	 1.326838321	 0.000000000
H	 2.472893514	 1.334387024	 0.200915476
H	 1.249610637	 1.702736450	 -1.014121917
H	 0.926097320	 2.019012435	 0.697416847
O	 -2.060428371	 0.000000000	 1.065208390
H	 -2.770761465	 -0.577163021	 0.775275981
C	 -1.781422195	 -0.304372756	 2.429032564
H	 -0.966038895	 0.344133402	 2.731865538
H	 -2.640240384	 -0.106967060	 3.070025709
H	 -1.464444628	 -1.338862859	 2.559026938
