12
0  1  0  1  0  1   6   6  5.57673  6.61479  6.16854  5.13049  6.06114  5.50660 11.55043 11.52737 11.48825  5.59374 -32.70137 65.59802 -17.50464 -9.79827
O	 -2.889644975	 -0.001891768	 -0.160578977
H	 -1.936742529	 -0.000000000	 -0.000000000
C	 -3.341572000	 1.326838321	 -0.000000000
H	 -4.409636043	 1.334387024	 -0.200915476
H	 -3.186353166	 1.702736450	 1.014121917
H	 -2.862839850	 2.019012435	 -0.697416847
O	 -0.557540951	 0.000000000	 0.000000000
H	 -0.438917057	 -0.734937988	 0.606255379
C	 -0.328428770	 -0.483737364	 -1.320609468
H	 -0.484582643	 0.355248526	 -1.990562167
H	 0.691945893	 -0.844906487	 -1.446316721
H	 -1.027117782	 -1.274875354	 -1.591676682
