12
0  1  0  1  0  1   6   6  3.64911  4.62848  4.27260  3.29323  4.17343  3.64196  9.76799  9.75035  9.69676  4.09728 -28.64461 54.30588 -12.46550 -9.09849
O	 0.390967436	 -0.001891768	 0.451090356
H	 -0.561935010	 0.000000000	 0.290511379
C	 0.842894461	 1.326838321	 0.290511379
H	 1.910958504	 1.334387024	 0.491426855
H	 0.687675627	 1.702736450	 -0.723610538
H	 0.364162310	 2.019012435	 0.987928226
O	 -1.873116701	 0.000000000	 0.968371264
H	 -2.583449795	 -0.577163021	 0.678438855
C	 -1.594110525	 -0.304372756	 2.332195438
H	 -0.778727225	 0.344133402	 2.635028412
H	 -2.452928714	 -0.106967060	 2.973188583
H	 -1.277132958	 -1.338862859	 2.462189812
