12
0  1  0  1  0  1   6   6 -2.09911 -1.53141 -1.67434 -2.24203 -1.74315 -2.04481  1.33390  1.31874  1.28735 -1.38497 -16.06406 27.63144 -7.56906 -5.38329
O	 -2.889644975	 -0.001891768	 -0.160578977
H	 -1.936742529	 -0.000000000	 -0.000000000
C	 -3.341572000	 1.326838321	 -0.000000000
H	 -4.409636043	 1.334387024	 -0.200915476
H	 -3.186353166	 1.702736450	 1.014121917
H	 -2.862839850	 2.019012435	 -0.697416847
O	 -0.334942222	 0.000000000	 0.000000000
H	 -0.230864507	 -0.577163021	 0.760132709
C	 0.706661071	 -0.304372756	 -0.923538522
H	 0.561230468	 0.344133402	 -1.781097662
H	 1.691186512	 -0.106967060	 -0.500276726
H	 0.660750717	 -1.338862859	 -1.263046335
