12
0  1  0  1  0  1   6   6 -3.08455 -2.67077 -2.66075 -3.07454 -2.74266 -2.94456  0.21973  0.21032  0.18652 -2.59901 -6.38382  9.79073 -2.07962 -3.92629
O	 -2.889644975	 -0.001891768	 -0.160578977
H	 -1.936742529	 -0.000000000	 -0.000000000
C	 -3.341572000	 1.326838321	 -0.000000000
H	 -4.409636043	 1.334387024	 -0.200915476
H	 -3.186353166	 1.702736450	 1.014121917
H	 -2.862839850	 2.019012435	 -0.697416847
O	 0.130118066	 0.000000000	 0.000000000
H	 0.840451160	 -0.577163021	 0.289932409
C	 -0.148888109	 -0.304372756	 -1.363824173
H	 -0.964271411	 0.344133402	 -1.666657147
H	 0.709930079	 -0.106967060	 -2.004817318
H	 -0.465865677	 -1.338862859	 -1.493818547
