12
0  1  0  1  0  1   6   6 -3.07998 -2.44671 -2.60003 -3.23329 -2.68796 -3.02055  1.31141  1.29844  1.25739 -2.47722 -16.80924 27.12443 -6.56331 -6.22910
O	 0.585837741	 0.191782485	 0.160578977
H	 -0.367064705	 0.193674253	 0.000000000
C	 1.037764766	 1.520512574	 0.000000000
H	 2.105828809	 1.528061277	 0.200915476
H	 0.882545932	 1.896410703	 -1.014121917
H	 0.559032615	 2.212686688	 0.697416847
O	 -1.835323524	 0.968371264	 0.000000000
H	 -2.531110439	 0.703633576	 -0.606255379
C	 -2.368808460	 0.924919551	 1.320609468
H	 -1.564148430	 1.209179276	 1.990562167
H	 -3.191777427	 1.628005369	 1.446316721
H	 -2.704609551	 -0.075731878	 1.591676682
