12
0  1  0  1  0  1   6   6 -2.96081 -2.78621 -2.74483 -2.91943 -2.79636 -2.86890 -1.36885 -1.36967 -1.37298 -2.78538 -2.63990  2.25536 -0.58108 -1.81975
O	 -2.889644975	 -0.001891768	 -0.160578977
H	 -1.936742529	 -0.000000000	 -0.000000000
C	 -3.341572000	 1.326838321	 -0.000000000
H	 -4.409636043	 1.334387024	 -0.200915476
H	 -3.186353166	 1.702736450	 1.014121917
H	 -2.862839850	 2.019012435	 -0.697416847
O	 0.589420420	 0.000000000	 0.000000000
H	 1.299753514	 -0.577163021	 0.289932409
C	 0.310414245	 -0.304372756	 -1.363824173
H	 -0.504969057	 0.344133402	 -1.666657147
H	 1.169232433	 -0.106967060	 -2.004817318
H	 -0.006563323	 -1.338862859	 -1.493818547
