12
0  1  0  1  0  1   6   6 -5.27111 -4.98336 -4.97057 -5.25832 -5.02471 -5.17294 -3.00990 -3.00815 -3.03938 -5.07002 -6.86239  6.60119 -1.84245 -2.96637
O	 0.952902446	 -0.001891768	 0.160578977
H	 0.000000000	 0.000000000	 0.000000000
C	 1.404829471	 1.326838321	 0.000000000
H	 2.472893514	 1.334387024	 0.200915476
H	 1.249610637	 1.702736450	 -1.014121917
H	 0.926097320	 2.019012435	 0.697416847
O	 -1.835323524	 0.968371264	 0.000000000
H	 -2.531110439	 0.703633576	 -0.606255379
C	 -2.368808460	 0.924919551	 1.320609468
H	 -1.564148430	 1.209179276	 1.990562167
H	 -3.191777427	 1.628005369	 1.446316721
H	 -2.704609551	 -0.075731878	 1.591676682
