12
0  1  0  1  0  1   6   6 -4.69600 -4.50751 -4.48316 -4.67165 -4.52463 -4.61649 -3.09753 -3.09261 -3.10887 -4.61769 -4.72816  3.21441 -1.02869 -2.07525
O	 0.952902446	 -0.001891768	 0.160578977
H	 0.000000000	 0.000000000	 0.000000000
C	 1.404829471	 1.326838321	 0.000000000
H	 2.472893514	 1.334387024	 0.200915476
H	 1.249610637	 1.702736450	 -1.014121917
H	 0.926097320	 2.019012435	 0.697416847
O	 -2.018855876	 1.065208390	 0.000000000
H	 -2.714642791	 0.800470702	 -0.606255379
C	 -2.552340812	 1.021756677	 1.320609468
H	 -1.747680782	 1.306016402	 1.990562167
H	 -3.375309779	 1.724842495	 1.446316721
H	 -2.888141903	 0.021105248	 1.591676682
