12
0  1  0  1  0  1   6   6 -5.75574 -5.35747 -5.40589 -5.80416 -5.46678 -5.68013 -3.15555 -3.16665 -3.21002 -5.34495 -10.61792 12.72696 -3.75432 -3.69966
O	 -0.636134928	 -0.023282411	 0.280599321
H	 0.308097372	 -0.047078748	 0.076463691
C	 -1.152065407	 -1.311287783	 0.015259549
H	 -2.209945023	 -1.296265392	 0.263955863
H	 -1.056610240	 -1.592670859	 -1.036190606
H	 -0.674835746	 -2.086272765	 0.620511449
O	 2.144586677	 -0.119524799	 -0.009037733
H	 2.613375987	 0.494859725	 -0.578703687
C	 2.653420603	 0.037494139	 1.312679591
H	 2.099851523	 -0.650702288	 1.942810471
H	 3.712416705	 -0.212944760	 1.369402732
H	 2.500980965	 1.048188192	 1.690572137
