12
0  1  0  1  0  1   6   6 -5.36837 -4.96174 -4.98495 -5.39158 -5.05583 -5.26512 -2.47316 -2.48747 -2.52345 -5.00206 -10.30037 12.67868 -3.53461 -3.84576
O	 -2.889644975	 -0.001891768	 -0.160578977
H	 -1.936742529	 -0.000000000	 -0.000000000
C	 -3.341572000	 1.326838321	 -0.000000000
H	 -4.409636043	 1.334387024	 -0.200915476
H	 -3.186353166	 1.702736450	 1.014121917
H	 -2.862839850	 2.019012435	 -0.697416847
O	 -0.064968958	 0.000000000	 0.000000000
H	 0.053654936	 -0.734937988	 0.606255379
C	 0.164143223	 -0.483737364	 -1.320609468
H	 0.007989350	 0.355248526	 -1.990562167
H	 1.184517886	 -0.844906487	 -1.446316721
H	 -0.534545789	 -1.274875354	 -1.591676682
