13
0  1  0  1  0  1   6   7 -6.04192 -5.73787 -5.75844 -6.06249 -5.83933 -5.97545 -3.36966 -3.38176 -3.39861 -5.81275 -7.85458  7.80869 -2.55770 -3.20916
O	 -2.938957111	 0.080078772	 -0.002859582
H	 -1.969361369	 0.000000000	 0.000000000
C	 -3.232278470	 1.458339364	 0.000000000
H	 -4.314098889	 1.568126099	 -0.001849604
H	 -2.847816610	 1.970233293	 0.887461245
H	 -2.844318919	 1.974614827	 -0.883387150
N	 0.159406161	 0.000000000	 0.000000000
H	 0.850162017	 -0.529166030	 -0.516811843
H	 0.049588499	 -0.482737619	 0.882694776
C	 0.660067118	 1.357152538	 0.241276949
H	 -0.082191405	 1.913843888	 0.808091138
H	 1.607745218	 1.403098328	 0.781774817
H	 0.787514115	 1.863305865	 -0.712494932
