13
0  1  0  1  0  1   6   7 -4.24801 -3.54420 -3.79667 -4.50047 -3.90605 -4.25675  1.27715  1.26397  1.24727 -4.15441 -21.96289 34.12749 -9.09439 -7.22463
O	 0.969595742	 0.080078772	 0.002859582
H	 0.000000000	 0.000000000	 0.000000000
C	 1.262917101	 1.458339364	 -0.000000000
H	 2.344737520	 1.568126099	 0.001849604
H	 0.878455241	 1.970233293	 -0.887461245
H	 0.874957551	 1.974614827	 0.883387150
N	 -1.521567302	 0.000000000	 -0.787744547
H	 -2.212323158	 -0.529166030	 -0.270932705
H	 -1.411749639	 -0.482737619	 -1.670439323
C	 -2.022228259	 1.357152538	 -1.029021497
H	 -1.279969736	 1.913843888	 -1.595835685
H	 -2.969906359	 1.403098328	 -1.569519364
H	 -2.149675256	 1.863305865	 -0.075249616
