13
0  1  0  1  0  1   6   7  9.04038 10.34407  9.77814  8.47445  9.60539  8.94342 20.30766 20.28746 20.26814  9.64716 -29.34593 65.77471 -13.35619 -13.42543
O	 -2.252120840	 0.080078772	 -0.002859582
H	 -1.282525098	 0.000000000	 0.000000000
C	 -2.545442199	 1.458339364	 0.000000000
H	 -3.627262618	 1.568126099	 -0.001849604
H	 -2.160980339	 1.970233293	 0.887461245
H	 -2.157482648	 1.974614827	 -0.883387150
N	 0.320092869	 0.000000000	 0.000000000
H	 0.878956684	 -0.288368126	 -0.792950113
H	 0.861316482	 -0.244941790	 0.819344931
C	 0.121488301	 1.452440366	 -0.041378511
H	 -0.468113523	 1.754845395	 0.820626237
H	 1.043316423	 2.037711709	 -0.047132677
H	 -0.448998453	 1.707525204	 -0.931092688
