13
0  1  0  1  0  1   6   7 -4.33920 -4.09695 -4.06994 -4.31219 -4.16246 -4.25243 -1.88722 -1.89840 -1.90648 -4.15904 -3.79570  3.20270 -0.96680 -2.59924
O	 -2.938957111	 0.080078772	 -0.002859582
H	 -1.969361369	 0.000000000	 0.000000000
C	 -3.232278470	 1.458339364	 0.000000000
H	 -4.314098889	 1.568126099	 -0.001849604
H	 -2.847816610	 1.970233293	 0.887461245
H	 -2.844318919	 1.974614827	 -0.883387150
N	 0.549038293	 0.000000000	 0.000000000
H	 1.107902108	 -0.288368126	 -0.792950113
H	 1.090261906	 -0.244941790	 0.819344931
C	 0.350433725	 1.452440366	 -0.041378511
H	 -0.239168099	 1.754845395	 0.820626237
H	 1.272261847	 2.037711709	 -0.047132677
H	 -0.220053029	 1.707525204	 -0.931092688
