13
0  1  0  1  0  1   6   7 -6.33139 -5.85969 -5.94526 -6.41695 -6.03992 -6.26499 -2.38849 -2.40042 -2.41724 -6.12170 -13.91854 17.63824 -4.90869 -4.93271
O	 0.969595742	 0.080078772	 0.002859582
H	 0.000000000	 0.000000000	 0.000000000
C	 1.262917101	 1.458339364	 -0.000000000
H	 2.344737520	 1.568126099	 0.001849604
H	 0.878455241	 1.970233293	 -0.887461245
H	 0.874957551	 1.974614827	 0.883387150
N	 -1.713336055	 0.000000000	 0.886212616
H	 -1.611141798	 -0.529166030	 1.742830657
H	 -2.422863323	 -0.482737619	 0.349760343
C	 -2.172618501	 1.357152538	 1.199159249
H	 -2.292364726	 1.913843888	 0.272937418
H	 -3.114542435	 1.403098328	 1.749623625
H	 -1.410351321	 1.863305865	 1.786417527
