13
0  1  0  1  0  1   6   7 -5.69490 -5.43964 -5.44209 -5.69735 -5.51727 -5.62761 -3.39812 -3.40940 -3.42418 -5.52572 -6.47621  5.59329 -1.92447 -2.71833
O	 -2.938957111	 0.080078772	 -0.002859582
H	 -1.969361369	 0.000000000	 0.000000000
C	 -3.232278470	 1.458339364	 0.000000000
H	 -4.314098889	 1.568126099	 -0.001849604
H	 -2.847816610	 1.970233293	 0.887461245
H	 -2.844318919	 1.974614827	 -0.883387150
N	 0.263002736	 0.000000000	 0.000000000
H	 0.160808479	 -0.529166030	 -0.856618041
H	 0.972530005	 -0.482737619	 0.536452273
C	 0.722285182	 1.357152538	 -0.312946633
H	 0.842031407	 1.913843888	 0.613275199
H	 1.664209116	 1.403098328	 -0.863411008
H	 -0.039981998	 1.863305865	 -0.900204911
