13
0  1  0  1  0  1   6   7 -4.22612 -3.51963 -3.77120 -4.47770 -3.88108 -4.23309  1.34693  1.33372  1.31690 -4.12231 -21.96338 34.17040 -9.06533 -7.26399
O	 0.969595742	 0.080078772	 0.002859582
H	 0.000000000	 0.000000000	 0.000000000
C	 1.262917101	 1.458339364	 -0.000000000
H	 2.344737520	 1.568126099	 0.001849604
H	 0.878455241	 1.970233293	 -0.887461245
H	 0.874957551	 1.974614827	 0.883387150
N	 -1.522965382	 0.000000000	 0.787744547
H	 -1.420771125	 -0.529166030	 1.644362588
H	 -2.232492650	 -0.482737619	 0.251292274
C	 -1.982247828	 1.357152538	 1.100691180
H	 -2.101994053	 1.913843888	 0.174469349
H	 -2.924171762	 1.403098328	 1.651155556
H	 -1.219980648	 1.863305865	 1.687949458
