13
0  1  0  1  0  1   6   7 -1.09870 -0.27761 -0.49759 -1.31868 -0.64606 -1.03815  6.61032  6.59255  6.58489 -0.22053 -16.36048 31.53843 -6.65015 -8.74832
O	 -2.481066263	 0.080078772	 -0.002859582
H	 -1.511470521	 0.000000000	 0.000000000
C	 -2.774387622	 1.458339364	 0.000000000
H	 -3.856208041	 1.568126099	 -0.001849604
H	 -2.389925762	 1.970233293	 0.887461245
H	 -2.386428071	 1.974614827	 -0.883387150
N	 0.320092869	 0.000000000	 0.000000000
H	 0.878956684	 -0.288368126	 -0.792950113
H	 0.861316482	 -0.244941790	 0.819344931
C	 0.121488301	 1.452440366	 -0.041378511
H	 -0.468113523	 1.754845395	 0.820626237
H	 1.043316423	 2.037711709	 -0.047132677
H	 -0.448998453	 1.707525204	 -0.931092688
