13
0  1  0  1  0  1   6   7 -6.29210 -5.92762 -6.01028 -6.37476 -6.07560 -6.25164 -3.31295 -3.31986 -3.32717 -6.08853 -12.22102 14.58228 -4.41973 -4.03006
O	 -2.938957111	 0.080078772	 -0.002859582
H	 -1.969361369	 0.000000000	 0.000000000
C	 -3.232278470	 1.458339364	 0.000000000
H	 -4.314098889	 1.568126099	 -0.001849604
H	 -2.847816610	 1.970233293	 0.887461245
H	 -2.844318919	 1.974614827	 -0.883387150
N	 -0.043009948	 0.000000000	 0.000000000
H	 -0.013312163	 -0.628174324	 -0.792950113
H	 0.015476046	 -0.591184293	 0.819344931
C	 1.115538022	 0.898216784	 -0.041378511
H	 1.082627548	 1.560029456	 0.820626237
H	 2.083311934	 0.392525884	 -0.047132677
H	 1.051204595	 1.519815225	 -0.931092688
