13
0  1  0  1  0  1   6   7 -2.73717 -1.95393 -2.31063 -3.09388 -2.43179 -2.82376  3.32747  3.31427  3.29246 -2.56964 -22.33013 38.81357 -11.03281 -8.02027
O	 -2.533477581	 0.080078772	 -0.002859582
H	 -1.563881839	 0.000000000	 0.000000000
C	 -2.826798940	 1.458339364	 0.000000000
H	 -3.908619359	 1.568126099	 -0.001849604
H	 -2.442337080	 1.970233293	 0.887461245
H	 -2.438839389	 1.974614827	 -0.883387150
N	 0.058036279	 0.000000000	 0.000000000
H	 0.748792135	 -0.529166030	 -0.516811843
H	 -0.051781383	 -0.482737619	 0.882694776
C	 0.558697236	 1.357152538	 0.241276949
H	 -0.183561287	 1.913843888	 0.808091138
H	 1.506375336	 1.403098328	 0.781774817
H	 0.686144233	 1.863305865	 -0.712494932
