13
0  1  0  1  0  1   6   7 -6.23772 -5.87210 -5.92167 -6.28728 -6.01066 -6.17796 -3.08262 -3.09559 -3.11307 -5.94367 -9.51790 10.79484 -3.38364 -3.83698
O	 -2.938957111	 0.080078772	 -0.002859582
H	 -1.969361369	 0.000000000	 0.000000000
C	 -3.232278470	 1.458339364	 0.000000000
H	 -4.314098889	 1.568126099	 -0.001849604
H	 -2.847816610	 1.970233293	 0.887461245
H	 -2.844318919	 1.974614827	 -0.883387150
N	 0.058036279	 0.000000000	 0.000000000
H	 0.748792135	 -0.529166030	 -0.516811843
H	 -0.051781383	 -0.482737619	 0.882694776
C	 0.558697236	 1.357152538	 0.241276949
H	 -0.183561287	 1.913843888	 0.808091138
H	 1.506375336	 1.403098328	 0.781774817
H	 0.686144233	 1.863305865	 -0.712494932
