13
0  1  0  1  0  1   6   7  5.40992  6.64116  5.88076  4.64952  5.75193  5.09227 13.44625 13.43720 13.38427  3.44283 -42.91563 83.87241 -25.06617 -12.44779
O	 -0.117033205	 0.012877551	 0.004960585
H	 0.855510602	 0.038757327	 -0.000086226
C	 -0.486783680	 -1.346868629	 0.000188761
H	 -1.573036589	 -1.396148586	 0.004439905
H	 -0.133518958	 -1.877604492	 -0.889169017
H	 -0.126192791	 -1.885773644	 0.881654256
N	 2.231913573	 -0.038132577	 -0.003412437
H	 2.602533125	 0.469643929	 0.789719954
H	 2.602656413	 0.426205990	 -0.822671271
C	 2.709665509	 -1.424166024	 0.034048768
H	 2.317780672	 -1.958191301	 -0.828142961
H	 3.796376665	 -1.530901192	 0.037083263
H	 2.317539108	 -1.910896193	 0.923680915
