13
0  1  0  1  0  1   6   7 -5.74135 -5.20722 -5.36319 -5.89732 -5.47065 -5.72358 -1.28035 -1.29419 -1.30904 -5.34631 -14.24306 20.45892 -5.98476 -5.57741
O	 -2.938957111	 0.080078772	 -0.002859582
H	 -1.969361369	 0.000000000	 0.000000000
C	 -3.232278470	 1.458339364	 0.000000000
H	 -4.314098889	 1.568126099	 -0.001849604
H	 -2.847816610	 1.970233293	 0.887461245
H	 -2.844318919	 1.974614827	 -0.883387150
N	 -0.142881646	 0.000000000	 0.000000000
H	 -0.245075903	 -0.529166030	 -0.856618041
H	 0.566645623	 -0.482737619	 0.536452273
C	 0.316400800	 1.357152538	 -0.312946633
H	 0.436147025	 1.913843888	 0.613275199
H	 1.258324734	 1.403098328	 -0.863411008
H	 -0.445866380	 1.863305865	 -0.900204911
