13
0  1  0  1  0  1   6   7  5.99673  7.17074  6.48234  5.30833  6.34637  5.72474 14.31933 14.30742 14.25642  4.94660 -35.25008 72.67886 -20.66176 -11.82043
O	 -2.330737817	 0.080078772	 -0.002859582
H	 -1.361142075	 0.000000000	 0.000000000
C	 -2.624059176	 1.458339364	 0.000000000
H	 -3.705879595	 1.568126099	 -0.001849604
H	 -2.239597316	 1.970233293	 0.887461245
H	 -2.236099625	 1.974614827	 -0.883387150
N	 0.058036279	 0.000000000	 0.000000000
H	 0.748792135	 -0.529166030	 -0.516811843
H	 -0.051781383	 -0.482737619	 0.882694776
C	 0.558697236	 1.357152538	 0.241276949
H	 -0.183561287	 1.913843888	 0.808091138
H	 1.506375336	 1.403098328	 0.781774817
H	 0.686144233	 1.863305865	 -0.712494932
