13
0  1  0  1  0  1   6   7 -6.01054 -5.74665 -5.73635 -6.00024 -5.80806 -5.92600 -3.68066 -3.68976 -3.70597 -5.93907 -7.52186  6.45971 -2.05974 -2.81717
O	 0.969595742	 0.080078772	 0.002859582
H	 0.000000000	 0.000000000	 0.000000000
C	 1.262917101	 1.458339364	 -0.000000000
H	 2.344737520	 1.568126099	 0.001849604
H	 0.878455241	 1.970233293	 -0.887461245
H	 0.874957551	 1.974614827	 0.883387150
N	 -1.998892064	 0.000000000	 1.033914718
H	 -1.896697807	 -0.529166030	 1.890532759
H	 -2.708419332	 -0.482737619	 0.497462445
C	 -2.458174510	 1.357152538	 1.346861351
H	 -2.577920735	 1.913843888	 0.420639520
H	 -3.400098444	 1.403098328	 1.897325727
H	 -1.695907330	 1.863305865	 1.934119629
