13
0  1  0  1  0  1   6   7 -6.18190 -5.73838 -5.83159 -6.27511 -5.93091 -6.13687 -2.39707 -2.41073 -2.42725 -5.81863 -11.53622 14.82778 -4.46466 -4.64552
O	 -2.938957111	 0.080078772	 -0.002859582
H	 -1.969361369	 0.000000000	 0.000000000
C	 -3.232278470	 1.458339364	 0.000000000
H	 -4.314098889	 1.568126099	 -0.001849604
H	 -2.847816610	 1.970233293	 0.887461245
H	 -2.844318919	 1.974614827	 -0.883387150
N	 -0.041410551	 0.000000000	 0.000000000
H	 -0.143604808	 -0.529166030	 -0.856618041
H	 0.668116718	 -0.482737619	 0.536452273
C	 0.417871895	 1.357152538	 -0.312946633
H	 0.537618120	 1.913843888	 0.613275199
H	 1.359795829	 1.403098328	 -0.863411008
H	 -0.344395285	 1.863305865	 -0.900204911
