13
0  1  0  1  0  1   6   7 -6.14049 -5.88999 -5.90388 -6.15438 -5.96329 -6.07879 -4.03844 -4.05269 -4.06460 -6.03026 -8.16507  7.07338 -2.40581 -2.53277
O	 0.969595742	 0.080078772	 0.002859582
H	 0.000000000	 0.000000000	 0.000000000
C	 1.262917101	 1.458339364	 -0.000000000
H	 2.344737520	 1.568126099	 0.001849604
H	 0.878455241	 1.970233293	 -0.887461245
H	 0.874957551	 1.974614827	 0.883387150
N	 -1.925687491	 -1.033914718	 0.000000000
H	 -1.955385276	 -1.662089042	 0.792950113
H	 -1.984173484	 -1.625099011	 -0.819344931
C	 -3.084235461	 -0.135697935	 0.041378511
H	 -3.051324987	 0.526114738	 -0.820626237
H	 -4.052009373	 -0.641388835	 0.047132677
H	 -3.019902034	 0.485900506	 0.931092688
