13
0  1  0  1  0  1   6   7 -4.94980 -4.73974 -4.70218 -4.91224 -4.78123 -4.86026 -2.77391 -2.77649 -2.78427 -4.92274 -4.70730  3.18484 -0.93502 -2.46526
O	 0.969595742	 0.080078772	 0.002859582
H	 0.000000000	 0.000000000	 0.000000000
C	 1.262917101	 1.458339364	 -0.000000000
H	 2.344737520	 1.568126099	 0.001849604
H	 0.878455241	 1.970233293	 -0.887461245
H	 0.874957551	 1.974614827	 0.883387150
N	 -2.368598748	 1.083148752	 0.000000000
H	 -2.927462563	 0.794780627	 0.792950113
H	 -2.909822360	 0.838206962	 -0.819344931
C	 -2.169994180	 2.535589118	 0.041378511
H	 -1.580392356	 2.837994148	 -0.820626237
H	 -3.091822302	 3.120860461	 0.047132677
H	 -1.599507426	 2.790673956	 0.931092688
