13
0  1  0  1  0  1   6   7 -5.70497 -5.45261 -5.45509 -5.70746 -5.52822 -5.63805 -3.44418 -3.45520 -3.46992 -5.54043 -6.54440  5.64060 -1.94569 -2.69093
O	 -2.938957111	 0.080078772	 -0.002859582
H	 -1.969361369	 0.000000000	 0.000000000
C	 -3.232278470	 1.458339364	 0.000000000
H	 -4.314098889	 1.568126099	 -0.001849604
H	 -2.847816610	 1.970233293	 0.887461245
H	 -2.844318919	 1.974614827	 -0.883387150
N	 0.260776044	 0.000000000	 0.000000000
H	 0.951531900	 -0.529166030	 -0.516811843
H	 0.150958382	 -0.482737619	 0.882694776
C	 0.761437001	 1.357152538	 0.241276949
H	 0.019178478	 1.913843888	 0.808091138
H	 1.709115101	 1.403098328	 0.781774817
H	 0.888883998	 1.863305865	 -0.712494932
