13
0  1  0  1  0  1   6   7  2.76332  3.83684  3.28762  2.21409  3.16410  2.59755 10.49853 10.48670 10.44563  1.95945 -35.47019 65.46964 -17.25802 -10.78197
O	 0.969595742	 0.080078772	 0.002859582
H	 0.000000000	 0.000000000	 0.000000000
C	 1.262917101	 1.458339364	 -0.000000000
H	 2.344737520	 1.568126099	 0.001849604
H	 0.878455241	 1.970233293	 -0.887461245
H	 0.874957551	 1.974614827	 0.883387150
N	 -1.331371389	 0.000000000	 -0.689276479
H	 -2.022127245	 -0.529166030	 -0.172464637
H	 -1.221553726	 -0.482737619	 -1.571971255
C	 -1.832032346	 1.357152538	 -0.930553429
H	 -1.089773823	 1.913843888	 -1.497367617
H	 -2.779710446	 1.403098328	 -1.471051296
H	 -1.959479343	 1.863305865	 0.023218452
