13
0  1  0  1  0  1   6   7 -1.79571 -1.00729 -1.11728 -1.90570 -1.25635 -1.64317  5.45727  5.44150  5.41444 -1.25828 -18.59596 31.88810 -6.07303 -8.47740
O	 0.969595742	 0.080078772	 0.002859582
H	 0.000000000	 0.000000000	 0.000000000
C	 1.262917101	 1.458339364	 -0.000000000
H	 2.344737520	 1.568126099	 0.001849604
H	 0.878455241	 1.970233293	 -0.887461245
H	 0.874957551	 1.974614827	 0.883387150
N	 -1.722617271	 0.787744547	 0.000000000
H	 -2.281481086	 0.499376422	 0.792950113
H	 -2.263840883	 0.542802757	 -0.819344931
C	 -1.524012703	 2.240184913	 0.041378511
H	 -0.934410879	 2.542589943	 -0.820626237
H	 -2.445840825	 2.825456256	 0.047132677
H	 -0.953525949	 2.495269751	 0.931092688
