13
0  1  0  1  0  1   6   7  2.83806  3.91664  3.36754  2.28896  3.24357  2.67427 10.65215 10.64018 10.59889  2.05675 -35.50573 65.62246 -17.21364 -10.84634
O	 0.969595742	 0.080078772	 0.002859582
H	 0.000000000	 0.000000000	 0.000000000
C	 1.262917101	 1.458339364	 -0.000000000
H	 2.344737520	 1.568126099	 0.001849604
H	 0.878455241	 1.970233293	 -0.887461245
H	 0.874957551	 1.974614827	 0.883387150
N	 -1.332594710	 0.000000000	 0.689276479
H	 -1.230400453	 -0.529166030	 1.545894520
H	 -2.042121978	 -0.482737619	 0.152824206
C	 -1.791877156	 1.357152538	 1.002223112
H	 -1.911623381	 1.913843888	 0.076001281
H	 -2.733801090	 1.403098328	 1.552687488
H	 -1.029609976	 1.863305865	 1.589481390
