13
0  1  0  1  0  1   6   7 -7.38278 -7.05104 -7.10449 -7.43624 -7.18019 -7.33555 -4.61995 -4.63275 -4.65012 -7.23056 -10.43483 10.11498 -3.42048 -3.49022
O	 -0.706920192	 0.045830367	 0.006386104
H	 0.265623615	 0.071710143	 0.001339293
C	 -1.076670667	 -1.313915813	 0.001614280
H	 -2.162923576	 -1.363195770	 0.005865424
H	 -0.723405945	 -1.844651676	 -0.887743498
H	 -0.716079778	 -1.852820828	 0.883079775
N	 2.330228071	 -0.043624713	 -0.003650024
H	 2.700847623	 0.464151793	 0.789482367
H	 2.700970911	 0.420713854	 -0.822908858
C	 2.807980007	 -1.429658160	 0.033811182
H	 2.416095170	 -1.963683437	 -0.828380548
H	 3.894691163	 -1.536393328	 0.036845677
H	 2.415853606	 -1.916388329	 0.923443328
