13
0  1  0  1  0  1   6   7 -5.62318 -5.22051 -5.18887 -5.59154 -5.29798 -5.47595 -1.64947 -1.65825 -1.67781 -5.38353 -8.74832 10.17115 -2.29307 -4.51330
O	 0.969595742	 0.080078772	 0.002859582
H	 0.000000000	 0.000000000	 0.000000000
C	 1.262917101	 1.458339364	 -0.000000000
H	 2.344737520	 1.568126099	 0.001849604
H	 0.878455241	 1.970233293	 -0.887461245
H	 0.874957551	 1.974614827	 0.883387150
N	 -2.045608010	 0.935446650	 0.000000000
H	 -2.604471825	 0.647078525	 0.792950113
H	 -2.586831622	 0.690504860	 -0.819344931
C	 -1.847003442	 2.387887016	 0.041378511
H	 -1.257401618	 2.690292046	 -0.820626237
H	 -2.768831564	 2.973158359	 0.047132677
H	 -1.276516688	 2.642971854	 0.931092688
