13
0  1  0  1  0  1   6   7  2.60756  3.60087  2.96886  1.97555  2.88259  2.34118  9.13791  9.12779  9.08742  1.69285 -36.15107 66.92970 -19.41565 -9.67013
O	 0.969595742	 0.080078772	 0.002859582
H	 0.000000000	 0.000000000	 0.000000000
C	 1.262917101	 1.458339364	 -0.000000000
H	 2.344737520	 1.568126099	 0.001849604
H	 0.878455241	 1.970233293	 -0.887461245
H	 0.874957551	 1.974614827	 0.883387150
N	 -1.283791661	 -0.689276479	 0.000000000
H	 -1.313489446	 -1.317450803	 0.792950113
H	 -1.342277654	 -1.280460772	 -0.819344931
C	 -2.442339631	 0.208940304	 0.041378511
H	 -2.409429157	 0.870752977	 -0.820626237
H	 -3.410113543	 -0.296750596	 0.047132677
H	 -2.378006204	 0.830538745	 0.931092688
