13
0  1  0  1  0  1   6   7 -6.49251 -6.10526 -6.14416 -6.53141 -6.23050 -6.41221 -3.20340 -3.21449 -3.23286 -6.32110 -11.23642 12.64284 -3.66435 -4.06316
O	 0.969595742	 0.080078772	 0.002859582
H	 0.000000000	 0.000000000	 0.000000000
C	 1.262917101	 1.458339364	 -0.000000000
H	 2.344737520	 1.568126099	 0.001849604
H	 0.878455241	 1.970233293	 -0.887461245
H	 0.874957551	 1.974614827	 0.883387150
N	 -1.806861171	 0.000000000	 -0.935446650
H	 -2.497617027	 -0.529166030	 -0.418634808
H	 -1.697043508	 -0.482737619	 -1.818141426
C	 -2.307522128	 1.357152538	 -1.176723600
H	 -1.565263605	 1.913843888	 -1.743537788
H	 -3.255200228	 1.403098328	 -1.717221467
H	 -2.434969125	 1.863305865	 -0.222951719
