13
0  1  0  1  0  1   6   7  5.16483  6.16988  5.52817  4.52312  5.43525  4.89468 11.76789 11.76607 11.73466  3.84713 -35.24651 69.43744 -20.00401 -10.33978
O	 -2.330635610	 0.080078772	 -0.002859582
H	 -1.361039868	 0.000000000	 0.000000000
C	 -2.623956969	 1.458339364	 0.000000000
H	 -3.705777388	 1.568126099	 -0.001849604
H	 -2.239495109	 1.970233293	 0.887461245
H	 -2.235997418	 1.974614827	 -0.883387150
N	 0.058376969	 0.000000000	 0.000000000
H	 0.088074754	 -0.628174324	 -0.792950113
H	 0.116862963	 -0.591184293	 0.819344931
C	 1.216924939	 0.898216784	 -0.041378511
H	 1.184014465	 1.560029456	 0.820626237
H	 2.184698851	 0.392525884	 -0.047132677
H	 1.152591512	 1.519815225	 -0.931092688
