13
0  1  0  1  0  1   6   7 -6.14922 -5.90074 -5.91809 -6.16658 -5.97265 -6.08890 -4.00968 -4.01561 -4.02543 -6.02825 -8.40609  7.72643 -2.53470 -2.81389
O	 -2.938957111	 0.080078772	 -0.002859582
H	 -1.969361369	 0.000000000	 0.000000000
C	 -3.232278470	 1.458339364	 0.000000000
H	 -4.314098889	 1.568126099	 -0.001849604
H	 -2.847816610	 1.970233293	 0.887461245
H	 -2.844318919	 1.974614827	 -0.883387150
N	 0.159763886	 0.000000000	 0.000000000
H	 0.189461671	 -0.628174324	 -0.792950113
H	 0.218249880	 -0.591184293	 0.819344931
C	 1.318311856	 0.898216784	 -0.041378511
H	 1.285401382	 1.560029456	 0.820626237
H	 2.286085768	 0.392525884	 -0.047132677
H	 1.253978429	 1.519815225	 -0.931092688
