13
0  1  0  1  0  1   6   7 -4.84274 -4.40401 -4.41717 -4.85589 -4.53724 -4.72759 -0.48853 -0.50334 -0.51786 -4.35427 -7.37795 10.18908 -2.44897 -4.71643
O	 -2.938957111	 0.080078772	 -0.002859582
H	 -1.969361369	 0.000000000	 0.000000000
C	 -3.232278470	 1.458339364	 0.000000000
H	 -4.314098889	 1.568126099	 -0.001849604
H	 -2.847816610	 1.970233293	 0.887461245
H	 -2.844318919	 1.974614827	 -0.883387150
N	 0.205620157	 0.000000000	 0.000000000
H	 0.764483972	 -0.288368126	 -0.792950113
H	 0.746843770	 -0.244941790	 0.819344931
C	 0.007015589	 1.452440366	 -0.041378511
H	 -0.582586235	 1.754845395	 0.820626237
H	 0.928843711	 2.037711709	 -0.047132677
H	 -0.563471165	 1.707525204	 -0.931092688
