13
0  1  0  1  0  1   6   7 -7.00150 -6.72438 -6.75242 -7.02954 -6.82112 -6.94860 -4.64698 -4.65839 -4.67495 -6.89620 -8.75577  7.43380 -2.63291 -2.94131
O	 -0.706920192	 0.045830367	 0.006386104
H	 0.265623615	 0.071710143	 0.001339293
C	 -1.076670667	 -1.313915813	 0.001614280
H	 -2.162923576	 -1.363195770	 0.005865424
H	 -0.723405945	 -1.844651676	 -0.887743498
H	 -0.716079778	 -1.852820828	 0.883079775
N	 2.428542569	 -0.049116849	 -0.003887610
H	 2.799162121	 0.458659657	 0.789244781
H	 2.799285409	 0.415221718	 -0.823146444
C	 2.906294505	 -1.435150296	 0.033573595
H	 2.514409668	 -1.969175573	 -0.828618134
H	 3.993005661	 -1.541885464	 0.036608090
H	 2.514168104	 -1.921880465	 0.923205742
