13
0  1  0  1  0  1   6   7 -5.34101 -5.08004 -5.03834 -5.29931 -5.12774 -5.23166 -2.68185 -2.68646 -2.69767 -5.26537 -5.70341  4.69654 -1.24967 -3.00883
O	 0.969595742	 0.080078772	 0.002859582
H	 0.000000000	 0.000000000	 0.000000000
C	 1.262917101	 1.458339364	 -0.000000000
H	 2.344737520	 1.568126099	 0.001849604
H	 0.878455241	 1.970233293	 -0.887461245
H	 0.874957551	 1.974614827	 0.883387150
N	 -2.260935168	 1.033914718	 0.000000000
H	 -2.819798983	 0.745546593	 0.792950113
H	 -2.802158780	 0.788972928	 -0.819344931
C	 -2.062330600	 2.486355084	 0.041378511
H	 -1.472728776	 2.788760114	 -0.820626237
H	 -2.984158722	 3.071626427	 0.047132677
H	 -1.491843846	 2.741439922	 0.931092688
