13
0  1  0  1  0  1   6   7  6.08832  7.27192  6.57834  5.39473  6.44085  5.81487 14.58255 14.57054 14.52031  5.09945 -35.08904 72.69730 -20.55569 -11.95312
O	 -2.330130537	 0.080078772	 -0.002859582
H	 -1.360534795	 0.000000000	 0.000000000
C	 -2.623451896	 1.458339364	 0.000000000
H	 -3.705272315	 1.568126099	 -0.001849604
H	 -2.238990036	 1.970233293	 0.887461245
H	 -2.235492345	 1.974614827	 -0.883387150
N	 0.060060545	 0.000000000	 0.000000000
H	 -0.042133712	 -0.529166030	 -0.856618041
H	 0.769587814	 -0.482737619	 0.536452273
C	 0.519342991	 1.357152538	 -0.312946633
H	 0.639089216	 1.913843888	 0.613275199
H	 1.461266925	 1.403098328	 -0.863411008
H	 -0.242924189	 1.863305865	 -0.900204911
