13
0  1  0  1  0  1   6   7 -6.22902 -5.85973 -5.90928 -6.27857 -6.00038 -6.16863 -3.02113 -3.03426 -3.05186 -5.92557 -9.42626 10.72977 -3.35143 -3.87765
O	 -2.938957111	 0.080078772	 -0.002859582
H	 -1.969361369	 0.000000000	 0.000000000
C	 -3.232278470	 1.458339364	 0.000000000
H	 -4.314098889	 1.568126099	 -0.001849604
H	 -2.847816610	 1.970233293	 0.887461245
H	 -2.844318919	 1.974614827	 -0.883387150
N	 0.060060545	 0.000000000	 0.000000000
H	 -0.042133712	 -0.529166030	 -0.856618041
H	 0.769587814	 -0.482737619	 0.536452273
C	 0.519342991	 1.357152538	 -0.312946633
H	 0.639089216	 1.913843888	 0.613275199
H	 1.461266925	 1.403098328	 -0.863411008
H	 -0.242924189	 1.863305865	 -0.900204911
