13
0  1  0  1  0  1   6   7 -5.58346 -5.36625 -5.34668 -5.56388 -5.41125 -5.50506 -3.63141 -3.63946 -3.65266 -5.55599 -6.25182  4.60932 -1.56391 -2.34958
O	 0.969595742	 0.080078772	 0.002859582
H	 0.000000000	 0.000000000	 0.000000000
C	 1.262917101	 1.458339364	 -0.000000000
H	 2.344737520	 1.568126099	 0.001849604
H	 0.878455241	 1.970233293	 -0.887461245
H	 0.874957551	 1.974614827	 0.883387150
N	 -2.094077401	 0.000000000	 1.083148752
H	 -1.991883144	 -0.529166030	 1.939766793
H	 -2.803604669	 -0.482737619	 0.546696479
C	 -2.553359847	 1.357152538	 1.396095385
H	 -2.673106072	 1.913843888	 0.469873554
H	 -3.495283781	 1.403098328	 1.946559761
H	 -1.791092667	 1.863305865	 1.983353663
