13
0  1  0  1  0  1   6   7 -6.19118 -5.75174 -5.84488 -6.28431 -5.94219 -6.14691 -2.47036 -2.48391 -2.50034 -5.84122 -11.64185 14.90073 -4.50421 -4.59589
O	 -2.938957111	 0.080078772	 -0.002859582
H	 -1.969361369	 0.000000000	 0.000000000
C	 -3.232278470	 1.458339364	 0.000000000
H	 -4.314098889	 1.568126099	 -0.001849604
H	 -2.847816610	 1.970233293	 0.887461245
H	 -2.844318919	 1.974614827	 -0.883387150
N	 -0.043333603	 0.000000000	 0.000000000
H	 0.647422253	 -0.529166030	 -0.516811843
H	 -0.153151265	 -0.482737619	 0.882694776
C	 0.457327354	 1.357152538	 0.241276949
H	 -0.284931169	 1.913843888	 0.808091138
H	 1.405005454	 1.403098328	 0.781774817
H	 0.584774351	 1.863305865	 -0.712494932
