13
0  1  0  1  0  1   6   7 -4.32009 -3.66352 -3.98747 -4.64405 -4.06607 -4.40571  0.46858  0.45477  0.44174 -4.23250 -22.94331 35.55067 -10.36024 -6.47961
O	 0.969595742	 0.080078772	 0.002859582
H	 0.000000000	 0.000000000	 0.000000000
C	 1.262917101	 1.458339364	 -0.000000000
H	 2.344737520	 1.568126099	 0.001849604
H	 0.878455241	 1.970233293	 -0.887461245
H	 0.874957551	 1.974614827	 0.883387150
N	 -1.467190470	 -0.787744547	 0.000000000
H	 -1.496888255	 -1.415918871	 0.792950113
H	 -1.525676463	 -1.378928840	 -0.819344931
C	 -2.625738440	 0.110472236	 0.041378511
H	 -2.592827966	 0.772284909	 -0.820626237
H	 -3.593512352	 -0.395218664	 0.047132677
H	 -2.561405013	 0.732070677	 0.931092688
