13
0  1  0  1  0  1   6   7 -6.42685 -5.98680 -6.12385 -6.56390 -6.19559 -6.41226 -2.96410 -2.97966 -2.98853 -6.18858 -14.83238 18.72254 -5.66839 -4.41036
O	 0.969595742	 0.080078772	 0.002859582
H	 0.000000000	 0.000000000	 0.000000000
C	 1.262917101	 1.458339364	 -0.000000000
H	 2.344737520	 1.568126099	 0.001849604
H	 0.878455241	 1.970233293	 -0.887461245
H	 0.874957551	 1.974614827	 0.883387150
N	 -1.650589278	 -0.886212616	 0.000000000
H	 -1.680287063	 -1.514386940	 0.792950113
H	 -1.709075271	 -1.477396909	 -0.819344931
C	 -2.809137248	 0.012004167	 0.041378511
H	 -2.776226774	 0.673816840	 -0.820626237
H	 -3.776911160	 -0.493686733	 0.047132677
H	 -2.744803821	 0.633602608	 0.931092688
