13
0  1  0  1  0  1   6   7 -4.67107 -4.37596 -4.35342 -4.64853 -4.45587 -4.57169 -1.70173 -1.71451 -1.72503 -4.41263 -4.66589  4.72270 -1.30637 -3.16307
O	 -2.938957111	 0.080078772	 -0.002859582
H	 -1.969361369	 0.000000000	 0.000000000
C	 -3.232278470	 1.458339364	 0.000000000
H	 -4.314098889	 1.568126099	 -0.001849604
H	 -2.847816610	 1.970233293	 0.887461245
H	 -2.844318919	 1.974614827	 -0.883387150
N	 0.434565581	 0.000000000	 0.000000000
H	 0.993429396	 -0.288368126	 -0.792950113
H	 0.975789194	 -0.244941790	 0.819344931
C	 0.235961013	 1.452440366	 -0.041378511
H	 -0.353640811	 1.754845395	 0.820626237
H	 1.157789135	 2.037711709	 -0.047132677
H	 -0.334525741	 1.707525204	 -0.931092688
