13
0  1  0  1  0  1   6   7 -5.82528 -5.62079 -5.62267 -5.82715 -5.67183 -5.76530 -4.01729 -4.02219 -4.03090 -5.75183 -7.06772  5.61301 -1.93862 -2.35850
O	 -2.938957111	 0.080078772	 -0.002859582
H	 -1.969361369	 0.000000000	 0.000000000
C	 -3.232278470	 1.458339364	 0.000000000
H	 -4.314098889	 1.568126099	 -0.001849604
H	 -2.847816610	 1.970233293	 0.887461245
H	 -2.844318919	 1.974614827	 -0.883387150
N	 0.261150803	 0.000000000	 0.000000000
H	 0.290848588	 -0.628174324	 -0.792950113
H	 0.319636797	 -0.591184293	 0.819344931
C	 1.419698773	 0.898216784	 -0.041378511
H	 1.386788299	 1.560029456	 0.820626237
H	 2.387472685	 0.392525884	 -0.047132677
H	 1.355365346	 1.519815225	 -0.931092688
