13
0  1  0  1  0  1   6   7 -5.75332 -5.22371 -5.37938 -5.90899 -5.48496 -5.73638 -1.36996 -1.38376 -1.39863 -5.37685 -14.36364 20.53690 -6.03322 -5.51688
O	 -2.938957111	 0.080078772	 -0.002859582
H	 -1.969361369	 0.000000000	 0.000000000
C	 -3.232278470	 1.458339364	 0.000000000
H	 -4.314098889	 1.568126099	 -0.001849604
H	 -2.847816610	 1.970233293	 0.887461245
H	 -2.844318919	 1.974614827	 -0.883387150
N	 -0.144703486	 0.000000000	 0.000000000
H	 0.546052370	 -0.529166030	 -0.516811843
H	 -0.254521148	 -0.482737619	 0.882694776
C	 0.355957471	 1.357152538	 0.241276949
H	 -0.386301052	 1.913843888	 0.808091138
H	 1.303635571	 1.403098328	 0.781774817
H	 0.483404468	 1.863305865	 -0.712494932
