18
0  1  0  1  0  1   6  12 -7.36888 -6.93686 -6.87214 -7.30416 -6.93698 -7.16774 -4.79461 -4.80081 -4.84462 -6.85787 -11.75515 14.36036 -4.88488 -4.57820
O	 -2.833575821	 0.165195777	 0.086369536
H	 -1.881119509	 0.000000000	 -0.000000000
C	 -3.271741574	 -0.565870220	 1.210952673
H	 -4.334560361	 -0.373719742	 1.335905755
H	 -3.135280901	 -1.643092677	 1.088993128
H	 -2.764712069	 -0.262364102	 2.131700153
C	 0.264797078	 2.112314499	 1.094438514
H	 0.663470008	 3.089837065	 0.834545619
H	 0.726844979	 1.778531828	 2.022210481
H	 -0.805867065	 2.180547121	 1.266306459
C	 0.520246826	 1.075050040	 0.031003703
O	 -0.078684782	 0.000000000	 0.000000000
N	 1.461276130	 1.388932354	 -0.889096847
H	 1.966669093	 2.249354548	 -0.786334655
C	 1.841236434	 0.452204497	 -1.925793064
H	 0.952524927	 -0.071799587	 -2.263444272
H	 2.279608394	 0.996291342	 -2.756989872
H	 2.555154474	 -0.286252249	 -1.562891316
