18
0  1  0  1  0  1   6  12 -6.92229 -6.35613 -6.22499 -6.79115 -6.32157 -6.60843 -2.66762 -2.67791 -2.71437 -6.51708 -13.30958 17.54890 -4.65311 -6.10329
O	 -2.833575821	 0.165195777	 0.086369536
H	 -1.881119509	 0.000000000	 -0.000000000
C	 -3.271741574	 -0.565870220	 1.210952673
H	 -4.334560361	 -0.373719742	 1.335905755
H	 -3.135280901	 -1.643092677	 1.088993128
H	 -2.764712069	 -0.262364102	 2.131700153
C	 -0.755935865	 2.112314499	 0.844683274
H	 -0.331525550	 3.089837065	 1.059997711
H	 -1.328386007	 1.778531828	 1.708714477
H	 -1.440109943	 2.180547121	 0.003394899
C	 0.292750571	 1.075050040	 0.534191839
O	 0.020134761	 0.000000000	 0.000000000
N	 1.560095673	 1.388932354	 0.889096847
H	 1.723797486	 2.249354548	 1.378161088
C	 2.647881085	 0.452204497	 0.699804014
H	 2.495939855	 -0.071799587	 -0.238668331
H	 3.586904616	 0.996291342	 0.663846864
H	 2.690557972	 -0.286252249	 1.499526047
