18
0  1  0  1  0  1   6  12 -0.23644  0.11101  0.22045 -0.12700  0.14147 -0.02400  3.17267  3.16202  3.13770  0.05610 -5.19659 11.07690 -1.94583 -3.87838
O	 -2.833575821	 0.165195777	 0.086369536
H	 -1.881119509	 0.000000000	 -0.000000000
C	 -3.271741574	 -0.565870220	 1.210952673
H	 -4.334560361	 -0.373719742	 1.335905755
H	 -3.135280901	 -1.643092677	 1.088993128
H	 -2.764712069	 -0.262364102	 2.131700153
C	 -0.241614003	 1.704440397	 1.119552486
H	 -0.318833664	 2.788603438	 1.093815101
H	 -0.129923788	 1.383505742	 2.154050529
H	 -1.153149425	 1.256953421	 0.733062421
C	 0.929086318	 1.182614713	 0.326315798
O	 1.030837629	 0.000000000	 0.000000000
N	 1.876332364	 2.091947550	 0.000000000
H	 1.780668655	 3.030246052	 0.341691150
C	 3.078569150	 1.704419121	 -0.707825108
H	 2.820244824	 0.950207704	 -1.444595385
H	 3.495223474	 2.573231980	 -1.208476679
H	 3.826094987	 1.283306962	 -0.036583955
