18
0  1  0  1  0  1   6  12 -7.15074 -6.55057 -6.39943 -6.99960 -6.49734 -6.80689 -2.73267 -2.73622 -2.78170 -6.82848 -14.61362 19.22574 -4.83152 -6.60908
O	 0.952456312	 0.165195777	 -0.086369536
H	 0.000000000	 0.000000000	 0.000000000
C	 1.390622065	 -0.565870220	 -1.210952673
H	 2.453440852	 -0.373719742	 -1.335905755
H	 1.254161392	 -1.643092677	 -1.088993128
H	 0.883592559	 -0.262364102	 -2.131700153
C	 -0.899367869	 2.112314499	 -1.691187054
H	 -1.323778183	 3.089837065	 -1.906501491
H	 -0.326917725	 1.778531828	 -2.555218257
H	 -0.215193789	 2.180547121	 -0.849898679
C	 -1.948054303	 1.075050040	 -1.380695618
O	 -1.675438493	 0.000000000	 -0.846503779
N	 -3.215399405	 1.388932354	 -1.735600626
H	 -3.379101218	 2.249354548	 -2.224664867
C	 -4.303184818	 0.452204497	 -1.546307794
H	 -4.151243589	 -0.071799587	 -0.607835449
H	 -5.242208348	 0.996291342	 -1.510350644
H	 -4.345861704	 -0.286252249	 -2.346029827
