18
0  1  0  1  0  1   6  12 -7.72809 -7.10611 -7.04302 -7.66500 -7.12957 -7.45692 -3.79430 -3.80274 -3.84494 -7.19769 -17.75699 24.72705 -7.60574 -6.56201
O	 -0.208777390	 -0.216870672	 -1.032405966
H	 0.711125931	 -0.386891753	 -0.773962396
C	 -1.022173368	 -0.741171136	 -0.005454186
H	 -2.057491187	 -0.538707333	 -0.268597254
H	 -0.907743364	 -1.821826321	 0.108537104
H	 -0.824631107	 -0.275494719	 0.964645466
C	 1.820017092	 1.901888100	 0.379334939
H	 2.326410721	 2.863337183	 0.344464582
H	 1.409472969	 1.755752225	 1.377211579
H	 0.990369290	 1.892374826	 -0.322170594
C	 2.735647475	 0.746949281	 0.063418727
O	 2.311452682	 -0.372961512	 -0.221662811
N	 4.061784390	 1.008673559	 0.122618091
H	 4.359796839	 1.919101692	 0.420305280
C	 5.044190424	 -0.031437748	 -0.100125730
H	 4.687633236	 -0.682375070	 -0.892302689
H	 5.984559662	 0.422086088	 -0.398639430
H	 5.203700537	 -0.635964650	 0.791949806
