18
0  1  0  1  0  1   6  12 -6.93863 -6.57614 -6.47446 -6.83695 -6.52345 -6.71960 -4.90305 -4.90709 -4.94243 -6.55136 -10.74771 12.32966 -4.25469 -3.87862
O	 -2.833575821	 0.165195777	 0.086369536
H	 -1.881119509	 0.000000000	 -0.000000000
C	 -3.271741574	 -0.565870220	 1.210952673
H	 -4.334560361	 -0.373719742	 1.335905755
H	 -3.135280901	 -1.643092677	 1.088993128
H	 -2.764712069	 -0.262364102	 2.131700153
C	 0.785004828	 1.954195637	 1.119552486
H	 1.685307733	 2.563151346	 1.093815101
H	 0.562912372	 1.697001746	 2.154050529
H	 -0.058297972	 2.519864981	 0.733062421
C	 0.918440690	 0.679426577	 0.326315798
O	 -0.054858039	 0.000000000	 0.000000000
N	 2.179569050	 0.313753856	 0.000000000
H	 2.944327535	 0.865750309	 0.341691150
C	 2.445077979	 -0.921177957	 -0.707825108
H	 1.662749569	 -1.074568237	 -1.444595385
H	 3.405819148	 -0.847604756	 -1.208476679
H	 2.454147070	 -1.779110401	 -0.036583955
