18
0  1  0  1  0  1   6  12 -1.15358 -0.97473 -0.84671 -1.02556 -0.90444 -0.97653  0.94489  0.93928  0.93438 -1.00083 -2.18797  4.33726 -0.83901 -2.31111
O	 -2.833575821	 0.165195777	 0.086369536
H	 -1.881119509	 0.000000000	 -0.000000000
C	 -3.271741574	 -0.565870220	 1.210952673
H	 -4.334560361	 -0.373719742	 1.335905755
H	 -3.135280901	 -1.643092677	 1.088993128
H	 -2.764712069	 -0.262364102	 2.131700153
C	 0.122380640	 1.704440397	 1.119552486
H	 0.045160979	 2.788603438	 1.093815101
H	 0.234070855	 1.383505742	 2.154050529
H	 -0.789154782	 1.256953421	 0.733062421
C	 1.293080961	 1.182614713	 0.326315798
O	 1.394832272	 0.000000000	 0.000000000
N	 2.240327007	 2.091947550	 0.000000000
H	 2.144663298	 3.030246052	 0.341691150
C	 3.442563793	 1.704419121	 -0.707825108
H	 3.184239467	 0.950207704	 -1.444595385
H	 3.859218117	 2.573231980	 -1.208476679
H	 4.190089630	 1.283306962	 -0.036583955
