18
0  1  0  1  0  1   6  12 -6.56749 -6.19473 -6.03086 -6.40363 -6.10343 -6.28946 -3.82149 -3.82508 -3.85467 -6.46925 -8.90994  8.66860 -2.28051 -3.94739
O	 0.952456312	 0.165195777	 -0.086369536
H	 0.000000000	 0.000000000	 0.000000000
C	 1.390622065	 -0.565870220	 -1.210952673
H	 2.453440852	 -0.373719742	 -1.335905755
H	 1.254161392	 -1.643092677	 -1.088993128
H	 0.883592559	 -0.262364102	 -2.131700153
C	 -0.744074127	 2.692028140	 -1.119552486
H	 -0.666854466	 3.776191181	 -1.093815101
H	 -0.855764341	 2.371093485	 -2.154050529
H	 0.167461296	 2.244541163	 -0.733062421
C	 -1.914774447	 2.170202455	 -0.326315798
O	 -2.016525758	 0.987587742	 0.000000000
N	 -2.862020493	 3.079535292	 0.000000000
H	 -2.766356784	 4.017833795	 -0.341691150
C	 -4.064257280	 2.692006864	 0.707825108
H	 -3.805932955	 1.937795447	 1.444595385
H	 -4.480911603	 3.560819722	 1.208476679
H	 -4.811783116	 2.270894704	 0.036583955
