18
0  1  0  1  0  1   6  12  4.70266  5.96187  5.73805  4.47884  5.63019  4.93516 11.18379 11.17415 11.10445  4.12906 -40.37113 81.75156 -24.50731 -12.74407
O	 -0.208777390	 -0.216870672	 -1.032405966
H	 0.711125931	 -0.386891753	 -0.773962396
C	 -1.022173368	 -0.741171136	 -0.005454186
H	 -2.057491187	 -0.538707333	 -0.268597254
H	 -0.907743364	 -1.821826321	 0.108537104
H	 -0.824631107	 -0.275494719	 0.964645466
C	 1.464388925	 1.898792491	 0.256601698
H	 1.970782554	 2.860241574	 0.221731341
H	 1.053844802	 1.752656616	 1.254478338
H	 0.634741123	 1.889279217	 -0.444903835
C	 2.380019308	 0.743853672	 -0.059314514
O	 1.955824515	 -0.376057121	 -0.344396052
N	 3.706156223	 1.005577950	 -0.000115150
H	 4.004168672	 1.916006083	 0.297572039
C	 4.688562257	 -0.034533357	 -0.222858971
H	 4.332005069	 -0.685470679	 -1.015035930
H	 5.628931495	 0.418990479	 -0.521372671
H	 4.848072370	 -0.639060259	 0.669216565
