18
0  1  0  1  0  1   6  12 -8.07157 -7.68901 -7.55991 -7.94246 -7.62906 -7.82661 -5.46477 -5.46858 -5.50736 -7.78708 -10.30981 10.02837 -3.40781 -4.09783
O	 -0.208777390	 -0.216870672	 -1.032405966
H	 0.711125931	 -0.386891753	 -0.773962396
C	 -1.022173368	 -0.741171136	 -0.005454186
H	 -2.057491187	 -0.538707333	 -0.268597254
H	 -0.907743364	 -1.821826321	 0.108537104
H	 -0.824631107	 -0.275494719	 0.964645466
C	 2.086738217	 1.904209807	 0.471384870
H	 2.593131846	 2.865658890	 0.436514513
H	 1.676194094	 1.758073932	 1.469261510
H	 1.257090415	 1.894696533	 -0.230120663
C	 3.002368600	 0.749270988	 0.155468658
O	 2.578173807	 -0.370639805	 -0.129612880
N	 4.328505515	 1.010995266	 0.214668022
H	 4.626517964	 1.921423399	 0.512355211
C	 5.310911549	 -0.029116041	 -0.008075799
H	 4.954354361	 -0.680053363	 -0.800252758
H	 6.251280787	 0.424407795	 -0.306589499
H	 5.470421662	 -0.633642943	 0.883999737
