18
0  1  0  1  0  1   6  12 -6.69095 -6.40264 -6.23966 -6.52796 -6.30777 -6.44236 -4.24536 -4.24295 -4.26022 -6.62089 -6.91740  5.47270 -1.66279 -3.51340
O	 0.952456312	 0.165195777	 -0.086369536
H	 0.000000000	 0.000000000	 0.000000000
C	 1.390622065	 -0.565870220	 -1.210952673
H	 2.453440852	 -0.373719742	 -1.335905755
H	 1.254161392	 -1.643092677	 -1.088993128
H	 0.883592559	 -0.262364102	 -2.131700153
C	 -1.271687535	 2.112314499	 -1.879299004
H	 -1.696097849	 3.089837065	 -2.094613441
H	 -0.699237391	 1.778531828	 -2.743330207
H	 -0.587513455	 2.180547121	 -1.038010629
C	 -2.320373969	 1.075050040	 -1.568807568
O	 -2.047758159	 0.000000000	 -1.034615729
N	 -3.587719071	 1.388932354	 -1.923712576
H	 -3.751420884	 2.249354548	 -2.412776817
C	 -4.675504484	 0.452204497	 -1.734419744
H	 -4.523563255	 -0.071799587	 -0.795947399
H	 -5.614528014	 0.996291342	 -1.698462594
H	 -4.718181370	 -0.286252249	 -2.534141777
