18
0  1  0  1  0  1   6  12  3.32090  4.39378  4.10711  3.03423  4.01456  3.42547  9.40345  9.39484  9.34188  3.74226 -33.59696 67.70519 -19.66826 -10.69770
O	 0.952456312	 0.165195777	 -0.086369536
H	 0.000000000	 0.000000000	 0.000000000
C	 1.390622065	 -0.565870220	 -1.210952673
H	 2.453440852	 -0.373719742	 -1.335905755
H	 1.254161392	 -1.643092677	 -1.088993128
H	 0.883592559	 -0.262364102	 -2.131700153
C	 -1.547300101	 2.112314499	 -0.436046685
H	 -1.945973030	 3.089837065	 -0.176153790
H	 -2.009348000	 1.778531828	 -1.363818653
H	 -0.476635956	 2.180547121	 -0.607914631
C	 -1.802749847	 1.075050040	 0.627388126
O	 -1.203818239	 0.000000000	 0.658391828
N	 -2.743779151	 1.388932354	 1.547488675
H	 -3.249172114	 2.249354548	 1.444726484
C	 -3.123739456	 0.452204497	 2.584184893
H	 -2.235027950	 -0.071799587	 2.921836101
H	 -3.562111415	 0.996291342	 3.415381700
H	 -3.837657495	 -0.286252249	 2.221283144
