18
0  1  0  1  0  1   6  12 -7.08558 -6.73815 -6.56637 -6.91380 -6.64138 -6.80921 -4.24296 -4.24141 -4.26592 -6.97335 -8.21236  7.49224 -2.14765 -4.10557
O	 0.952456312	 0.165195777	 -0.086369536
H	 0.000000000	 0.000000000	 0.000000000
C	 1.390622065	 -0.565870220	 -1.210952673
H	 2.453440852	 -0.373719742	 -1.335905755
H	 1.254161392	 -1.643092677	 -1.088993128
H	 0.883592559	 -0.262364102	 -2.131700153
C	 -1.178607618	 2.112314499	 -1.832271017
H	 -1.603017932	 3.089837065	 -2.047585454
H	 -0.606157474	 1.778531828	 -2.696302220
H	 -0.494433538	 2.180547121	 -0.990982642
C	 -2.227294052	 1.075050040	 -1.521779581
O	 -1.954678242	 0.000000000	 -0.987587742
N	 -3.494639154	 1.388932354	 -1.876684589
H	 -3.658340967	 2.249354548	 -2.365748830
C	 -4.582424567	 0.452204497	 -1.687391757
H	 -4.430483338	 -0.071799587	 -0.748919412
H	 -5.521448097	 0.996291342	 -1.651434607
H	 -4.625101453	 -0.286252249	 -2.487113790
