18
0  1  0  1  0  1   6  12  4.41787  5.76050  5.57422  4.23159  5.44854  4.71135 12.70298 12.68269 12.60295  4.64104 -38.94760 72.91417 -16.36675 -12.95878
O	 0.952456312	 0.165195777	 -0.086369536
H	 0.000000000	 0.000000000	 0.000000000
C	 1.390622065	 -0.565870220	 -1.210952673
H	 2.453440852	 -0.373719742	 -1.335905755
H	 1.254161392	 -1.643092677	 -1.088993128
H	 0.883592559	 -0.262364102	 -2.131700153
C	 -0.071898874	 2.362832226	 -1.119552486
H	 0.005320787	 3.446995267	 -1.093815101
H	 -0.183589088	 2.041897571	 -2.154050529
H	 0.839636549	 1.915345249	 -0.733062421
C	 -1.242599194	 1.841006541	 -0.326315798
O	 -1.344350505	 0.658391828	 0.000000000
N	 -2.189845240	 2.750339378	 0.000000000
H	 -2.094181531	 3.688637881	 -0.341691150
C	 -3.392082027	 2.362810950	 0.707825108
H	 -3.133757702	 1.608599533	 1.444595385
H	 -3.808736350	 3.231623808	 1.208476679
H	 -4.139607863	 1.941698790	 0.036583955
