18
0  1  0  1  0  1   6  12 -6.81291 -6.29767 -6.26537 -6.78061 -6.34308 -6.61112 -3.31672 -3.32589 -3.36167 -6.18811 -14.05142 18.94595 -5.79139 -5.29125
O	 0.952456312	 0.165195777	 -0.086369536
H	 0.000000000	 0.000000000	 0.000000000
C	 1.390622065	 -0.565870220	 -1.210952673
H	 2.453440852	 -0.373719742	 -1.335905755
H	 1.254161392	 -1.643092677	 -1.088993128
H	 0.883592559	 -0.262364102	 -2.131700153
C	 -1.891248170	 2.112314499	 -0.247934734
H	 -2.289921099	 3.089837065	 0.011958161
H	 -2.353296069	 1.778531828	 -1.175706702
H	 -0.820584025	 2.180547121	 -0.419802680
C	 -2.146697916	 1.075050040	 0.815500077
O	 -1.547766308	 0.000000000	 0.846503779
N	 -3.087727220	 1.388932354	 1.735600626
H	 -3.593120183	 2.249354548	 1.632838435
C	 -3.467687525	 0.452204497	 2.772296844
H	 -2.578976019	 -0.071799587	 3.109948052
H	 -3.906059484	 0.996291342	 3.603493651
H	 -4.181605564	 -0.286252249	 2.409395095
