18
0  1  0  1  0  1   6  12 -6.73668 -6.32824 -6.17344 -6.58188 -6.25748 -6.45640 -3.47510 -3.48220 -3.50917 -6.49577 -9.12270  9.88104 -2.73819 -4.51593
O	 -2.833575821	 0.165195777	 0.086369536
H	 -1.881119509	 0.000000000	 -0.000000000
C	 -3.271741574	 -0.565870220	 1.210952673
H	 -4.334560361	 -0.373719742	 1.335905755
H	 -3.135280901	 -1.643092677	 1.088993128
H	 -2.764712069	 -0.262364102	 2.131700153
C	 -0.555803837	 2.112314499	 0.844683274
H	 -0.131393522	 3.089837065	 1.059997711
H	 -1.128253979	 1.778531828	 1.708714477
H	 -1.239977915	 2.180547121	 0.003394899
C	 0.492882599	 1.075050040	 0.534191839
O	 0.220266789	 0.000000000	 0.000000000
N	 1.760227701	 1.388932354	 0.889096847
H	 1.923929514	 2.249354548	 1.378161088
C	 2.848013113	 0.452204497	 0.699804014
H	 2.696071883	 -0.071799587	 -0.238668331
H	 3.787036644	 0.996291342	 0.663846864
H	 2.890690000	 -0.286252249	 1.499526047
