18
0  1  0  1  0  1   6  12 -7.01125 -6.64531 -6.55866 -6.92460 -6.62788 -6.81356 -4.40392 -4.41181 -4.44533 -6.63138 -9.53287  9.98386 -3.29224 -3.79013
O	 0.952456312	 0.165195777	 -0.086369536
H	 0.000000000	 0.000000000	 0.000000000
C	 1.390622065	 -0.565870220	 -1.210952673
H	 2.453440852	 -0.373719742	 -1.335905755
H	 1.254161392	 -1.643092677	 -1.088993128
H	 0.883592559	 -0.262364102	 -2.131700153
C	 -2.063222204	 2.112314499	 -0.153878759
H	 -2.461895133	 3.089837065	 0.106014136
H	 -2.525270103	 1.778531828	 -1.081650727
H	 -0.992558059	 2.180547121	 -0.325746705
C	 -2.318671950	 1.075050040	 0.909556052
O	 -1.719740342	 0.000000000	 0.940559754
N	 -3.259701254	 1.388932354	 1.829656601
H	 -3.765094217	 2.249354548	 1.726894410
C	 -3.639661559	 0.452204497	 2.866352819
H	 -2.750950053	 -0.071799587	 3.204004027
H	 -4.078033518	 0.996291342	 3.697549626
H	 -4.353579598	 -0.286252249	 2.503451070
