18
0  1  0  1  0  1   6  12 -6.43421 -6.23100 -6.11613 -6.31934 -6.14956 -6.25684 -5.24363 -5.24374 -5.26537 -6.28557 -6.57788  4.49181 -1.89246 -2.30704
O	 -2.833575821	 0.165195777	 0.086369536
H	 -1.881119509	 0.000000000	 -0.000000000
C	 -3.271741574	 -0.565870220	 1.210952673
H	 -4.334560361	 -0.373719742	 1.335905755
H	 -3.135280901	 -1.643092677	 1.088993128
H	 -2.764712069	 -0.262364102	 2.131700153
C	 1.073361902	 1.954195637	 1.119552486
H	 1.973664808	 2.563151346	 1.093815101
H	 0.851269447	 1.697001746	 2.154050529
H	 0.230059103	 2.519864981	 0.733062421
C	 1.206797765	 0.679426577	 0.326315798
O	 0.233499036	 0.000000000	 0.000000000
N	 2.467926124	 0.313753856	 0.000000000
H	 3.232684609	 0.865750309	 0.341691150
C	 2.733435054	 -0.921177957	 -0.707825108
H	 1.951106643	 -1.074568237	 -1.444595385
H	 3.694176223	 -0.847604756	 -1.208476679
H	 2.742504144	 -1.779110401	 -0.036583955
