18
0  1  0  1  0  1   6  12 -6.70850 -6.42144 -6.32054 -6.60761 -6.38191 -6.52494 -4.54782 -4.55269 -4.58243 -6.51540 -7.53316  6.68287 -2.41209 -3.25302
O	 0.952456312	 0.165195777	 -0.086369536
H	 0.000000000	 0.000000000	 0.000000000
C	 1.390622065	 -0.565870220	 -1.210952673
H	 2.453440852	 -0.373719742	 -1.335905755
H	 1.254161392	 -1.643092677	 -1.088993128
H	 0.883592559	 -0.262364102	 -2.131700153
C	 -2.670116490	 0.966607894	 -1.119552486
H	 -3.570419395	 1.575563603	 -1.093815101
H	 -2.448024033	 0.709414004	 -2.154050529
H	 -1.826813689	 1.532277238	 -0.733062421
C	 -2.803552351	 -0.308161166	 -0.326315798
O	 -1.830253622	 -0.987587742	 0.000000000
N	 -4.064680711	 -0.673833887	 0.000000000
H	 -4.829439196	 -0.121837433	 -0.341691150
C	 -4.330189641	 -1.908765700	 0.707825108
H	 -3.547861232	 -2.062155980	 1.444595385
H	 -5.290930809	 -1.835192499	 1.208476679
H	 -4.339258731	 -2.766698144	 0.036583955
