18
0  1  0  1  0  1   6  12  4.50766  5.45705  5.27641  4.32702  5.20442  4.68012  9.03073  9.02556  8.98512  4.58352 -30.05908 63.92445 -19.50920 -9.77265
O	 -2.833575821	 0.165195777	 0.086369536
H	 -1.881119509	 0.000000000	 -0.000000000
C	 -3.271741574	 -0.565870220	 1.210952673
H	 -4.334560361	 -0.373719742	 1.335905755
H	 -3.135280901	 -1.643092677	 1.088993128
H	 -2.764712069	 -0.262364102	 2.131700153
C	 0.304409704	 1.954195637	 1.119552486
H	 1.204712610	 2.563151346	 1.093815101
H	 0.082317248	 1.697001746	 2.154050529
H	 -0.538893095	 2.519864981	 0.733062421
C	 0.437845567	 0.679426577	 0.326315798
O	 -0.535453163	 0.000000000	 0.000000000
N	 1.698973927	 0.313753856	 0.000000000
H	 2.463732411	 0.865750309	 0.341691150
C	 1.964482855	 -0.921177957	 -0.707825108
H	 1.182154445	 -1.074568237	 -1.444595385
H	 2.925224025	 -0.847604756	 -1.208476679
H	 1.973551946	 -1.779110401	 -0.036583955
