18
0  1  0  1  0  1   6  12 -6.29871 -6.06031 -5.95895 -6.19734 -6.01504 -6.13004 -4.43611 -4.43992 -4.46267 -6.16695 -6.35060  4.82109 -1.86246 -2.77499
O	 0.952456312	 0.165195777	 -0.086369536
H	 0.000000000	 0.000000000	 0.000000000
C	 1.390622065	 -0.565870220	 -1.210952673
H	 2.453440852	 -0.373719742	 -1.335905755
H	 1.254161392	 -1.643092677	 -1.088993128
H	 0.883592559	 -0.262364102	 -2.131700153
C	 -2.757271425	 0.919579907	 -1.119552486
H	 -3.657574330	 1.528535616	 -1.093815101
H	 -2.535178968	 0.662386017	 -2.154050529
H	 -1.913968624	 1.485249251	 -0.733062421
C	 -2.890707286	 -0.355189153	 -0.326315798
O	 -1.917408557	 -1.034615729	 0.000000000
N	 -4.151835646	 -0.720861874	 0.000000000
H	 -4.916594131	 -0.168865420	 -0.341691150
C	 -4.417344576	 -1.955793687	 0.707825108
H	 -3.635016167	 -2.109183967	 1.444595385
H	 -5.378085744	 -1.882220486	 1.208476679
H	 -4.426413666	 -2.813726131	 0.036583955
