18
0  1  0  1  0  1   6  12  2.60069  3.83842  3.71055  2.47283  3.58149  2.91266 10.29657 10.28397 10.21788  2.58984 -36.02149 67.40006 -16.03108 -12.75765
O	 0.952456312	 0.165195777	 -0.086369536
H	 0.000000000	 0.000000000	 0.000000000
C	 1.390622065	 -0.565870220	 -1.210952673
H	 2.453440852	 -0.373719742	 -1.335905755
H	 1.254161392	 -1.643092677	 -1.088993128
H	 0.883592559	 -0.262364102	 -2.131700153
C	 -0.527048204	 2.112314499	 -1.503075103
H	 -0.951458518	 3.089837065	 -1.718389540
H	 0.045401940	 1.778531828	 -2.367106306
H	 0.157125876	 2.180547121	 -0.661786728
C	 -1.575734638	 1.075050040	 -1.192583667
O	 -1.303118828	 0.000000000	 -0.658391828
N	 -2.843079740	 1.388932354	 -1.547488675
H	 -3.006781553	 2.249354548	 -2.036552916
C	 -3.930865153	 0.452204497	 -1.358195843
H	 -3.778923924	 -0.071799587	 -0.419723498
H	 -4.869888683	 0.996291342	 -1.322238693
H	 -3.973542039	 -0.286252249	 -2.157917876
