18
0  1  0  1  0  1   6  12 -6.76876 -6.52069 -6.40343 -6.65150 -6.44173 -6.57476 -5.33782 -5.33912 -5.36700 -6.55484 -7.66004  6.29946 -2.45831 -2.73594
O	 -2.833575821	 0.165195777	 0.086369536
H	 -1.881119509	 0.000000000	 -0.000000000
C	 -3.271741574	 -0.565870220	 1.210952673
H	 -4.334560361	 -0.373719742	 1.335905755
H	 -3.135280901	 -1.643092677	 1.088993128
H	 -2.764712069	 -0.262364102	 2.131700153
C	 0.977242878	 1.954195637	 1.119552486
H	 1.877545783	 2.563151346	 1.093815101
H	 0.755150422	 1.697001746	 2.154050529
H	 0.133940078	 2.519864981	 0.733062421
C	 1.110678740	 0.679426577	 0.326315798
O	 0.137380011	 0.000000000	 0.000000000
N	 2.371807100	 0.313753856	 0.000000000
H	 3.136565585	 0.865750309	 0.341691150
C	 2.637316029	 -0.921177957	 -0.707825108
H	 1.854987619	 -1.074568237	 -1.444595385
H	 3.598057198	 -0.847604756	 -1.208476679
H	 2.646385120	 -1.779110401	 -0.036583955
