18
0  1  0  1  0  1   6  12 -7.42383 -6.92176 -6.75261 -7.25468 -6.84280 -7.09778 -3.60180 -3.60333 -3.64331 -7.18064 -11.93400 14.04367 -3.65977 -5.63054
O	 0.952456312	 0.165195777	 -0.086369536
H	 0.000000000	 0.000000000	 0.000000000
C	 1.390622065	 -0.565870220	 -1.210952673
H	 2.453440852	 -0.373719742	 -1.335905755
H	 1.254161392	 -1.643092677	 -1.088993128
H	 0.883592559	 -0.262364102	 -2.131700153
C	 -0.992447786	 2.112314499	 -1.738215041
H	 -1.416858100	 3.089837065	 -1.953529478
H	 -0.419997642	 1.778531828	 -2.602246244
H	 -0.308273706	 2.180547121	 -0.896926666
C	 -2.041134220	 1.075050040	 -1.427723605
O	 -1.768518410	 0.000000000	 -0.893531766
N	 -3.308479322	 1.388932354	 -1.782628613
H	 -3.472181135	 2.249354548	 -2.271692854
C	 -4.396264735	 0.452204497	 -1.593335781
H	 -4.244323506	 -0.071799587	 -0.654863436
H	 -5.335288265	 0.996291342	 -1.557378631
H	 -4.438941621	 -0.286252249	 -2.393057814
