18
0  1  0  1  0  1   6  12 -1.20679 -1.11811 -1.01558 -1.10427 -1.05448 -1.08283  0.05780  0.05809  0.05911 -1.13473 -0.97495  1.57012 -0.36374 -1.36616
O	 -2.833575821	 0.165195777	 0.086369536
H	 -1.881119509	 0.000000000	 -0.000000000
C	 -3.271741574	 -0.565870220	 1.210952673
H	 -4.334560361	 -0.373719742	 1.335905755
H	 -3.135280901	 -1.643092677	 1.088993128
H	 -2.764712069	 -0.262364102	 2.131700153
C	 0.486375282	 1.704440397	 1.119552486
H	 0.409155621	 2.788603438	 1.093815101
H	 0.598065497	 1.383505742	 2.154050529
H	 -0.425160140	 1.256953421	 0.733062421
C	 1.657075603	 1.182614713	 0.326315798
O	 1.758826914	 0.000000000	 0.000000000
N	 2.604321649	 2.091947550	 0.000000000
H	 2.508657940	 3.030246052	 0.341691150
C	 3.806558435	 1.704419121	 -0.707825108
H	 3.548234109	 0.950207704	 -1.444595385
H	 4.223212759	 2.573231980	 -1.208476679
H	 4.554084272	 1.283306962	 -0.036583955
