18
0  1  0  1  0  1   6  12 -4.64214 -3.95238 -4.00750 -4.69726 -4.09340 -4.45725 -0.26824 -0.27692 -0.31187 -4.11647 -20.55663 33.89332 -9.96544 -7.48773
O	 0.952456312	 0.165195777	 -0.086369536
H	 0.000000000	 0.000000000	 0.000000000
C	 1.390622065	 -0.565870220	 -1.210952673
H	 2.453440852	 -0.373719742	 -1.335905755
H	 1.254161392	 -1.643092677	 -1.088993128
H	 0.883592559	 -0.262364102	 -2.131700153
C	 -2.234341818	 1.201747833	 -1.119552486
H	 -3.134644723	 1.810703542	 -1.093815101
H	 -2.012249361	 0.944553943	 -2.154050529
H	 -1.391039017	 1.767417177	 -0.733062421
C	 -2.367777679	 -0.073021227	 -0.326315798
O	 -1.394478950	 -0.752447803	 0.000000000
N	 -3.628906039	 -0.438693948	 0.000000000
H	 -4.393664524	 0.113302506	 -0.341691150
C	 -3.894414969	 -1.673625761	 0.707825108
H	 -3.112086560	 -1.827016041	 1.444595385
H	 -4.855156137	 -1.600052560	 1.208476679
H	 -3.903484059	 -2.531558205	 0.036583955
