18
0  1  0  1  0  1   6  12 -6.89589 -6.40949 -6.36004 -6.84645 -6.43625 -6.69045 -3.56897 -3.57639 -3.61681 -6.45331 -13.36688 17.74518 -5.50862 -5.32299
O	 0.952456312	 0.165195777	 -0.086369536
H	 0.000000000	 0.000000000	 0.000000000
C	 1.390622065	 -0.565870220	 -1.210952673
H	 2.453440852	 -0.373719742	 -1.335905755
H	 1.254161392	 -1.643092677	 -1.088993128
H	 0.883592559	 -0.262364102	 -2.131700153
C	 -2.408651687	 1.107691857	 -1.119552486
H	 -3.308954592	 1.716647566	 -1.093815101
H	 -2.186559230	 0.850497967	 -2.154050529
H	 -1.565348886	 1.673361201	 -0.733062421
C	 -2.542087548	 -0.167077203	 -0.326315798
O	 -1.568788819	 -0.846503779	 0.000000000
N	 -3.803215908	 -0.532749924	 0.000000000
H	 -4.567974393	 0.019246530	 -0.341691150
C	 -4.068724838	 -1.767681737	 0.707825108
H	 -3.286396429	 -1.921072017	 1.444595385
H	 -5.029466006	 -1.694108536	 1.208476679
H	 -4.077793928	 -2.625614181	 0.036583955
