18
0  1  0  1  0  1   6  12 -6.92273 -6.41169 -6.38149 -6.89253 -6.45176 -6.72448 -3.90376 -3.91116 -3.95361 -6.30237 -14.17013 19.79598 -6.49857 -5.42966
O	 -2.833575821	 0.165195777	 0.086369536
H	 -1.881119509	 0.000000000	 -0.000000000
C	 -3.271741574	 -0.565870220	 1.210952673
H	 -4.334560361	 -0.373719742	 1.335905755
H	 -3.135280901	 -1.643092677	 1.088993128
H	 -2.764712069	 -0.262364102	 2.131700153
C	 0.169932093	 2.112314499	 1.094438514
H	 0.568605023	 3.089837065	 0.834545619
H	 0.631979994	 1.778531828	 2.022210481
H	 -0.900732050	 2.180547121	 1.266306459
C	 0.425381841	 1.075050040	 0.031003703
O	 -0.173549767	 0.000000000	 0.000000000
N	 1.366411145	 1.388932354	 -0.889096847
H	 1.871804108	 2.249354548	 -0.786334655
C	 1.746371449	 0.452204497	 -1.925793064
H	 0.857659942	 -0.071799587	 -2.263444272
H	 2.184743409	 0.996291342	 -2.756989872
H	 2.460289489	 -0.286252249	 -1.562891316
