18
0  1  0  1  0  1   6  12 -7.42110 -7.05668 -6.97040 -7.33483 -7.02969 -7.22378 -5.23373 -5.23848 -5.28039 -7.01681 -9.85327 10.40374 -3.69933 -3.86795
O	 -2.833575821	 0.165195777	 0.086369536
H	 -1.881119509	 0.000000000	 -0.000000000
C	 -3.271741574	 -0.565870220	 1.210952673
H	 -4.334560361	 -0.373719742	 1.335905755
H	 -3.135280901	 -1.643092677	 1.088993128
H	 -2.764712069	 -0.262364102	 2.131700153
C	 0.359662064	 2.112314499	 1.094438514
H	 0.758334994	 3.089837065	 0.834545619
H	 0.821709965	 1.778531828	 2.022210481
H	 -0.711002079	 2.180547121	 1.266306459
C	 0.615111812	 1.075050040	 0.031003703
O	 0.016180204	 0.000000000	 0.000000000
N	 1.556141116	 1.388932354	 -0.889096847
H	 2.061534079	 2.249354548	 -0.786334655
C	 1.936101420	 0.452204497	 -1.925793064
H	 1.047389913	 -0.071799587	 -2.263444272
H	 2.374473380	 0.996291342	 -2.756989872
H	 2.650019460	 -0.286252249	 -1.562891316
