18
0  1  0  1  0  1   6  12 -0.98307 -0.93646 -0.86786 -0.91447 -0.89444 -0.90548 -0.22441 -0.22273 -0.22145 -0.95485 -0.51069  0.53147 -0.16346 -0.81217
O	 -2.833575821	 0.165195777	 0.086369536
H	 -1.881119509	 0.000000000	 -0.000000000
C	 -3.271741574	 -0.565870220	 1.210952673
H	 -4.334560361	 -0.373719742	 1.335905755
H	 -3.135280901	 -1.643092677	 1.088993128
H	 -2.764712069	 -0.262364102	 2.131700153
C	 0.850369924	 1.704440397	 1.119552486
H	 0.773150263	 2.788603438	 1.093815101
H	 0.962060139	 1.383505742	 2.154050529
H	 -0.061165498	 1.256953421	 0.733062421
C	 2.021070245	 1.182614713	 0.326315798
O	 2.122821556	 0.000000000	 0.000000000
N	 2.968316291	 2.091947550	 0.000000000
H	 2.872652582	 3.030246052	 0.341691150
C	 4.170553077	 1.704419121	 -0.707825108
H	 3.912228751	 0.950207704	 -1.444595385
H	 4.587207401	 2.573231980	 -1.208476679
H	 4.918078914	 1.283306962	 -0.036583955
