18
0  1  0  1  0  1   6  12 -6.88067 -6.62606 -6.52472 -6.77933 -6.57330 -6.70506 -5.31924 -5.32131 -5.35129 -6.65507 -7.14442  5.43970 -2.16947 -2.78088
O	 -2.833575821	 0.165195777	 0.086369536
H	 -1.881119509	 0.000000000	 -0.000000000
C	 -3.271741574	 -0.565870220	 1.210952673
H	 -4.334560361	 -0.373719742	 1.335905755
H	 -3.135280901	 -1.643092677	 1.088993128
H	 -2.764712069	 -0.262364102	 2.131700153
C	 0.549392035	 2.112314499	 1.094438514
H	 0.948064965	 3.089837065	 0.834545619
H	 1.011439936	 1.778531828	 2.022210481
H	 -0.521272108	 2.180547121	 1.266306459
C	 0.804841783	 1.075050040	 0.031003703
O	 0.205910175	 0.000000000	 0.000000000
N	 1.745871087	 1.388932354	 -0.889096847
H	 2.251264050	 2.249354548	 -0.786334655
C	 2.125831391	 0.452204497	 -1.925793064
H	 1.237119884	 -0.071799587	 -2.263444272
H	 2.564203351	 0.996291342	 -2.756989872
H	 2.839749431	 -0.286252249	 -1.562891316
