18
0  1  0  1  0  1   6  12 -1.10767 -1.04409 -0.95885 -1.02242 -0.99070 -1.00846 -0.12863 -0.12701 -0.12565 -1.06064 -0.68738  0.92068 -0.24218 -1.05176
O	 -2.833575821	 0.165195777	 0.086369536
H	 -1.881119509	 0.000000000	 -0.000000000
C	 -3.271741574	 -0.565870220	 1.210952673
H	 -4.334560361	 -0.373719742	 1.335905755
H	 -3.135280901	 -1.643092677	 1.088993128
H	 -2.764712069	 -0.262364102	 2.131700153
C	 0.668372603	 1.704440397	 1.119552486
H	 0.591152942	 2.788603438	 1.093815101
H	 0.780062818	 1.383505742	 2.154050529
H	 -0.243162819	 1.256953421	 0.733062421
C	 1.839072924	 1.182614713	 0.326315798
O	 1.940824235	 0.000000000	 0.000000000
N	 2.786318970	 2.091947550	 0.000000000
H	 2.690655261	 3.030246052	 0.341691150
C	 3.988555756	 1.704419121	 -0.707825108
H	 3.730231430	 0.950207704	 -1.444595385
H	 4.405210080	 2.573231980	 -1.208476679
H	 4.736081593	 1.283306962	 -0.036583955
