18
0  1  0  1  0  1   6  12 -6.93391 -6.45213 -6.30401 -6.78579 -6.39439 -6.63455 -3.20395 -3.21262 -3.24552 -6.61505 -10.97539 13.16532 -3.55781 -5.24716
O	 -2.833575821	 0.165195777	 0.086369536
H	 -1.881119509	 0.000000000	 -0.000000000
C	 -3.271741574	 -0.565870220	 1.210952673
H	 -4.334560361	 -0.373719742	 1.335905755
H	 -3.135280901	 -1.643092677	 1.088993128
H	 -2.764712069	 -0.262364102	 2.131700153
C	 -0.655869851	 2.112314499	 0.844683274
H	 -0.231459536	 3.089837065	 1.059997711
H	 -1.228319993	 1.778531828	 1.708714477
H	 -1.340043929	 2.180547121	 0.003394899
C	 0.392816585	 1.075050040	 0.534191839
O	 0.120200775	 0.000000000	 0.000000000
N	 1.660161687	 1.388932354	 0.889096847
H	 1.823863500	 2.249354548	 1.378161088
C	 2.747947099	 0.452204497	 0.699804014
H	 2.596005869	 -0.071799587	 -0.238668331
H	 3.686970630	 0.996291342	 0.663846864
H	 2.790623986	 -0.286252249	 1.499526047
