9
0  1  0  1  0  1   6   3  5.19395  5.99748  5.71860  4.91507  5.64456  5.20994  9.45170  9.43353  9.40298  5.94623 -22.29675 48.10365 -12.78212 -7.07854
O	 -2.950026327	 -0.000822553	 -0.000687124
H	 -1.985211446	 0.000000000	 -0.000000000
C	 -3.367395399	 1.349073611	 0.000000000
H	 -4.454127184	 1.353335972	 -0.000273784
H	 -3.028138479	 1.891535429	 0.885695490
H	 -3.027671289	 1.892610442	 -0.884862436
O	 -0.559951028	 0.000000000	 0.000000000
H	 0.187227937	 -0.407638205	 0.443309808
H	 -0.569432708	 -0.411494802	 -0.866924927
