9
0  1  0  1  0  1   6   3 -3.93711 -3.74872 -3.70585 -3.89424 -3.73557 -3.83688 -2.78277 -2.78119 -2.80389 -3.71925 -4.75438  3.96512 -1.24602 -1.68398
O	 -2.950026327	 -0.000822553	 -0.000687124
H	 -1.985211446	 0.000000000	 -0.000000000
C	 -3.367395399	 1.349073611	 0.000000000
H	 -4.454127184	 1.353335972	 -0.000273784
H	 -3.028138479	 1.891535429	 0.885695490
H	 -3.027671289	 1.892610442	 -0.884862436
O	 0.152679182	 0.000000000	 0.000000000
H	 0.899858147	 -0.407638205	 0.443309808
H	 0.143197502	 -0.411494802	 -0.866924927
