9
0  1  0  1  0  1   6   3 -2.04682 -1.47581 -1.54598 -2.11699 -1.61193 -1.91260  1.18037  1.16290  1.14231 -1.40587 -17.68008 28.90529 -7.55295 -5.07812
O	 -2.950026327	 -0.000822553	 -0.000687124
H	 -1.985211446	 0.000000000	 -0.000000000
C	 -3.367395399	 1.349073611	 0.000000000
H	 -4.454127184	 1.353335972	 -0.000273784
H	 -3.028138479	 1.891535429	 0.885695490
H	 -3.027671289	 1.892610442	 -0.884862436
O	 -0.371300162	 0.000000000	 0.000000000
H	 -0.206693818	 -0.565735572	 0.757507038
H	 -0.208769318	 -0.568990496	 -0.755519850
