9
0  1  0  1  0  1   6   3  3.63567  4.42275  4.19554  3.40845  4.13166  3.70199  7.73284  7.71281  7.68539  4.46371 -23.65647 46.24395 -11.54226 -6.58151
O	 0.964814880	 -0.000822553	 0.000687124
H	 -0.000000000	 0.000000000	 0.000000000
C	 1.382183952	 1.349073611	 0.000000000
H	 2.468915738	 1.353335972	 0.000273784
H	 1.042927032	 1.891535429	 -0.885695490
H	 1.042459843	 1.892610442	 0.884862436
O	 -1.296996753	 -0.694824006	 -0.000000000
H	 -1.461603098	 -1.260559578	 -0.757507038
H	 -1.459527599	 -1.263814503	 0.755519850
