9
0  1  0  1  0  1   6   3 -5.00558 -4.68024 -4.66979 -4.99513 -4.70838 -4.89055 -3.19285 -3.20005 -3.23891 -4.59434 -9.09104 10.28296 -3.01328 -2.77298
O	 -0.786562022	 0.045168441	 -0.007189119
H	 0.177706774	 0.012695896	 -0.006835389
C	 -1.247990941	 -1.290283536	 0.001083621
H	 -2.334277443	 -1.258897100	 0.000221200
H	 -0.925965746	 -1.849768096	 -0.880445382
H	 -0.927027831	 -1.838462882	 0.890076520
O	 2.062641817	 -0.049162737	 -0.004812041
H	 2.501845956	 0.338989462	 -0.764684723
H	 2.500526111	 0.353441542	 0.748277491
