9
0  1  0  1  0  1   6   3 -4.67715 -4.46791 -4.44575 -4.65499 -4.47371 -4.59032 -3.52185 -3.52224 -3.55023 -4.42885 -5.70369  4.63406 -1.54250 -1.81673
O	 -2.950026327	 -0.000822553	 -0.000687124
H	 -1.985211446	 0.000000000	 -0.000000000
C	 -3.367395399	 1.349073611	 0.000000000
H	 -4.454127184	 1.353335972	 -0.000273784
H	 -3.028138479	 1.891535429	 0.885695490
H	 -3.027671289	 1.892610442	 -0.884862436
O	 0.096623200	 0.000000000	 0.000000000
H	 0.668867749	 -0.140314511	 0.757507038
H	 0.670648846	 -0.143739408	 -0.755519850
