9
0  1  0  1  0  1   6   3 -4.33330 -4.12223 -4.07128 -4.28235 -4.10083 -4.21662 -3.06766 -3.06786 -3.09358 -4.14419 -5.76003  4.85920 -1.39983 -1.84354
O	 0.964814880	 -0.000822553	 0.000687124
H	 -0.000000000	 0.000000000	 0.000000000
C	 1.382183952	 1.349073611	 0.000000000
H	 2.468915738	 1.353335972	 0.000273784
H	 1.042927032	 1.891535429	 -0.885695490
H	 1.042459843	 1.892610442	 0.884862436
O	 -1.886799331	 -0.000000000	 0.992605723
H	 -2.633978296	 -0.407638205	 0.549295915
H	 -1.877317652	 -0.411494802	 1.859530651
