9
0  1  0  1  0  1   6   3 -4.27655 -4.10307 -4.05342 -4.22691 -4.08060 -4.17246 -3.06024 -3.05417 -3.07143 -4.15574 -4.86544  3.51070 -1.05392 -1.74708
O	 0.964814880	 -0.000822553	 0.000687124
H	 -0.000000000	 0.000000000	 0.000000000
C	 1.382183952	 1.349073611	 0.000000000
H	 2.468915738	 1.353335972	 0.000273784
H	 1.042927032	 1.891535429	 -0.885695490
H	 1.042459843	 1.892610442	 0.884862436
O	 -1.981736443	 1.042236009	 -0.000000000
H	 -2.553980992	 0.901921498	 -0.757507038
H	 -2.555762090	 0.898496601	 0.755519850
