9
0  1  0  1  0  1   6   3  2.89996  3.66383  3.45557  2.69171  3.38939  2.97163  6.97486  6.95660  6.92244  3.57057 -23.13258 44.09679 -10.80693 -6.58671
O	 0.964814880	 -0.000822553	 0.000687124
H	 -0.000000000	 0.000000000	 0.000000000
C	 1.382183952	 1.349073611	 0.000000000
H	 2.468915738	 1.353335972	 0.000273784
H	 1.042927032	 1.891535429	 -0.885695490
H	 1.042459843	 1.892610442	 0.884862436
O	 -1.320759532	 -0.000000000	 0.694824006
H	 -2.067938497	 -0.407638205	 0.251514198
H	 -1.311277853	 -0.411494802	 1.561748934
