9
0  1  0  1  0  1   6   3 -4.10557 -3.93794 -3.88780 -4.05543 -3.91360 -4.00333 -3.08023 -3.07912 -3.09746 -3.98223 -4.78903  3.34307 -1.02918 -1.50708
O	 0.964814880	 -0.000822553	 0.000687124
H	 -0.000000000	 0.000000000	 0.000000000
C	 1.382183952	 1.349073611	 0.000000000
H	 2.468915738	 1.353335972	 0.000273784
H	 1.042927032	 1.891535429	 -0.885695490
H	 1.042459843	 1.892610442	 0.884862436
O	 -1.980500489	 -0.000000000	 -1.042236009
H	 -1.970172416	 -0.407638205	 -1.910966878
H	 -2.726538660	 -0.411494802	 -0.600562170
