9
0  1  0  1  0  1   6   3 -4.76311 -4.50471 -4.44843 -4.70683 -4.48371 -4.62559 -3.13761 -3.14003 -3.17058 -4.51171 -7.49308  7.39071 -2.11865 -2.29069
O	 -2.950026327	 -0.000822553	 -0.000687124
H	 -1.985211446	 0.000000000	 -0.000000000
C	 -3.367395399	 1.349073611	 0.000000000
H	 -4.454127184	 1.353335972	 -0.000273784
H	 -3.028138479	 1.891535429	 0.885695490
H	 -3.027671289	 1.892610442	 -0.884862436
O	 0.032177659	 0.000000000	 0.000000000
H	 0.196784003	 -0.565735572	 0.757507038
H	 0.194708503	 -0.568990496	 -0.755519850
