9
0  1  0  1  0  1   6   3 -4.77438 -4.46051 -4.46675 -4.78063 -4.50322 -4.67953 -3.05786 -3.06240 -3.10017 -4.32586 -8.23330  9.43096 -2.83713 -2.68640
O	 -2.950026327	 -0.000822553	 -0.000687124
H	 -1.985211446	 0.000000000	 -0.000000000
C	 -3.367395399	 1.349073611	 0.000000000
H	 -4.454127184	 1.353335972	 -0.000273784
H	 -3.028138479	 1.891535429	 0.885695490
H	 -3.027671289	 1.892610442	 -0.884862436
O	 -0.101646766	 0.000000000	 0.000000000
H	 0.470597783	 -0.140314511	 0.757507038
H	 0.472378880	 -0.143739408	 -0.755519850
