9
0  1  0  1  0  1   6   3 -4.03279 -3.74283 -3.71542 -4.00537 -3.75516 -3.91406 -2.31600 -2.31842 -2.35218 -3.61869 -6.96206  8.18107 -2.33085 -2.50685
O	 -2.950026327	 -0.000822553	 -0.000687124
H	 -1.985211446	 0.000000000	 -0.000000000
C	 -3.367395399	 1.349073611	 0.000000000
H	 -4.454127184	 1.353335972	 -0.000273784
H	 -3.028138479	 1.891535429	 0.885695490
H	 -3.027671289	 1.892610442	 -0.884862436
O	 -0.050511364	 0.000000000	 0.000000000
H	 -0.060839437	 -0.407638205	 0.868730869
H	 0.695526806	 -0.411494802	 -0.441673839
