9
0  1  0  1  0  1   6   3 -4.07130 -3.83642 -3.79775 -4.03264 -3.83220 -3.96033 -2.66014 -2.66036 -2.68939 -3.76478 -5.71815  5.70386 -1.69810 -2.05238
O	 -2.950026327	 -0.000822553	 -0.000687124
H	 -1.985211446	 0.000000000	 -0.000000000
C	 -3.367395399	 1.349073611	 0.000000000
H	 -4.454127184	 1.353335972	 -0.000273784
H	 -3.028138479	 1.891535429	 0.885695490
H	 -3.027671289	 1.892610442	 -0.884862436
O	 0.050874866	 0.000000000	 0.000000000
H	 0.798053831	 -0.407638205	 0.443309808
H	 0.041393186	 -0.411494802	 -0.866924927
