9
0  1  0  1  0  1   6   3 -4.48573 -4.20878 -4.16576 -4.44271 -4.20058 -4.35404 -2.90134 -2.90739 -2.93935 -4.13681 -7.29968  7.47392 -2.06959 -2.24146
O	 0.964814880	 -0.000822553	 0.000687124
H	 -0.000000000	 0.000000000	 0.000000000
C	 1.382183952	 1.349073611	 0.000000000
H	 2.468915738	 1.353335972	 0.000273784
H	 1.042927032	 1.891535429	 -0.885695490
H	 1.042459843	 1.892610442	 0.884862436
O	 -1.760209880	 -0.942975437	 -0.000000000
H	 -1.924816224	 -1.508711009	 -0.757507038
H	 -1.922740725	 -1.511965934	 0.755519850
