9
0  1  0  1  0  1   6   3 -2.18864 -1.61138 -1.73710 -2.31436 -1.79703 -2.10835  0.89629  0.87717  0.84815 -1.47261 -17.27892 28.73048 -7.86520 -5.05896
O	 -0.786562022	 0.045168441	 -0.007189119
H	 0.177706774	 0.012695896	 -0.006835389
C	 -1.247990941	 -1.290283536	 0.001083621
H	 -2.334277443	 -1.258897100	 0.000221200
H	 -0.925965746	 -1.849768096	 -0.880445382
H	 -0.927027831	 -1.838462882	 0.890076520
O	 1.765020494	 -0.039395585	 -0.005131517
H	 2.204224633	 0.348756614	 -0.765004199
H	 2.202904788	 0.363208694	 0.747958015
