9
0  1  0  1  0  1   6   3 -4.55484 -4.27832 -4.23366 -4.51017 -4.27125 -4.42292 -2.74892 -2.74691 -2.77903 -4.28386 -7.13800  7.38968 -1.94768 -2.58786
O	 0.964814880	 -0.000822553	 0.000687124
H	 -0.000000000	 0.000000000	 0.000000000
C	 1.382183952	 1.349073611	 0.000000000
H	 2.468915738	 1.353335972	 0.000273784
H	 1.042927032	 1.891535429	 -0.885695490
H	 1.042459843	 1.892610442	 0.884862436
O	 -1.792999639	 0.942975437	 -0.000000000
H	 -2.365244188	 0.802660926	 -0.757507038
H	 -2.367025286	 0.799236029	 0.755519850
