9
0  1  0  1  0  1   6   3  5.11597  5.98722  5.66371  4.79246  5.59192  5.11364  9.39944  9.37665  9.33849  5.58011 -27.61672 56.33773 -15.48294 -7.65796
O	 -0.786562022	 0.045168441	 -0.007189119
H	 0.177706774	 0.012695896	 -0.006835389
C	 -1.247990941	 -1.290283536	 0.001083621
H	 -2.334277443	 -1.258897100	 0.000221200
H	 -0.925965746	 -1.849768096	 -0.880445382
H	 -0.927027831	 -1.838462882	 0.890076520
O	 1.566606279	 -0.032884150	 -0.005344501
H	 2.005810418	 0.355268049	 -0.765217183
H	 2.004490573	 0.369720129	 0.747745031
