9
0  1  0  1  0  1   6   3 -4.82077 -4.56355 -4.55106 -4.80828 -4.58283 -4.72755 -3.40830 -3.41046 -3.44455 -4.47999 -6.80886  6.61859 -2.08386 -2.20587
O	 -2.950026327	 -0.000822553	 -0.000687124
H	 -1.985211446	 0.000000000	 -0.000000000
C	 -3.367395399	 1.349073611	 0.000000000
H	 -4.454127184	 1.353335972	 -0.000273784
H	 -3.028138479	 1.891535429	 0.885695490
H	 -3.027671289	 1.892610442	 -0.884862436
O	 -0.002511783	 0.000000000	 0.000000000
H	 0.569732766	 -0.140314511	 0.757507038
H	 0.571513863	 -0.143739408	 -0.755519850
