9
0  1  0  1  0  1   6   3 -3.98964 -3.85335 -3.80784 -3.94414 -3.83064 -3.90090 -2.99671 -2.98931 -3.00031 -3.91459 -4.09929  2.41340 -0.78760 -1.44110
O	 0.964814880	 -0.000822553	 0.000687124
H	 -0.000000000	 0.000000000	 0.000000000
C	 1.382183952	 1.349073611	 0.000000000
H	 2.468915738	 1.353335972	 0.000273784
H	 1.042927032	 1.891535429	 -0.885695490
H	 1.042459843	 1.892610442	 0.884862436
O	 -2.076104845	 1.091866295	 -0.000000000
H	 -2.648349394	 0.951551784	 -0.757507038
H	 -2.650130492	 0.948126887	 0.755519850
