9
0  1  0  1  0  1   6   3 -4.32997 -4.16726 -4.10966 -4.27237 -4.13322 -4.22156 -3.21169 -3.20768 -3.22641 -4.22859 -5.19595  3.69279 -1.16765 -1.55779
O	 -2.950026327	 -0.000822553	 -0.000687124
H	 -1.985211446	 0.000000000	 -0.000000000
C	 -3.367395399	 1.349073611	 0.000000000
H	 -4.454127184	 1.353335972	 -0.000273784
H	 -3.028138479	 1.891535429	 0.885695490
H	 -3.027671289	 1.892610442	 -0.884862436
O	 0.233916570	 0.000000000	 0.000000000
H	 0.398522914	 -0.565735572	 0.757507038
H	 0.396447414	 -0.568990496	 -0.755519850
