9
0  1  0  1  0  1   6   3 -1.95583 -1.39327 -1.54200 -2.10456 -1.59929 -1.90417  1.03410  1.01780  0.98753 -1.16866 -15.65404 26.88581 -7.48254 -4.91789
O	 -2.950026327	 -0.000822553	 -0.000687124
H	 -1.985211446	 0.000000000	 -0.000000000
C	 -3.367395399	 1.349073611	 0.000000000
H	 -4.454127184	 1.353335972	 -0.000273784
H	 -3.028138479	 1.891535429	 0.885695490
H	 -3.027671289	 1.892610442	 -0.884862436
O	 -0.399051716	 0.000000000	 0.000000000
H	 0.173192833	 -0.140314511	 0.757507038
H	 0.174973930	 -0.143739408	 -0.755519850
