9
0  1  0  1  0  1   6   3 -4.18988 -4.01289 -3.96299 -4.13998 -3.98934 -4.08491 -3.14305 -3.14514 -3.16524 -4.02115 -4.97965  3.54610 -1.10139 -1.48621
O	 0.964814880	 -0.000822553	 0.000687124
H	 -0.000000000	 0.000000000	 0.000000000
C	 1.382183952	 1.349073611	 0.000000000
H	 2.468915738	 1.353335972	 0.000273784
H	 1.042927032	 1.891535429	 -0.885695490
H	 1.042459843	 1.892610442	 0.884862436
O	 -1.945495130	 -1.042236009	 -0.000000000
H	 -2.110101474	 -1.607971581	 -0.757507038
H	 -2.108025975	 -1.611226506	 0.755519850
