9
0  1  0  1  0  1   6   3 -4.43511 -4.17090 -4.12542 -4.38964 -4.15907 -4.30629 -2.87962 -2.88136 -2.91436 -4.15981 -7.03065  7.06099 -1.92593 -2.26423
O	 0.964814880	 -0.000822553	 0.000687124
H	 -0.000000000	 0.000000000	 0.000000000
C	 1.382183952	 1.349073611	 0.000000000
H	 2.468915738	 1.353335972	 0.000273784
H	 1.042927032	 1.891535429	 -0.885695490
H	 1.042459843	 1.892610442	 0.884862436
O	 -1.792459364	 -0.000000000	 0.942975437
H	 -2.539638329	 -0.407638205	 0.499665629
H	 -1.782977685	 -0.411494802	 1.809900365
