9
0  1  0  1  0  1   6   3 -3.72398 -3.36920 -3.36441 -3.71919 -3.41001 -3.60354 -1.64724 -1.65227 -1.68733 -3.18607 -8.60666 11.72207 -3.22906 -3.07242
O	 -2.950026327	 -0.000822553	 -0.000687124
H	 -1.985211446	 0.000000000	 -0.000000000
C	 -3.367395399	 1.349073611	 0.000000000
H	 -4.454127184	 1.353335972	 -0.000273784
H	 -3.028138479	 1.891535429	 0.885695490
H	 -3.027671289	 1.892610442	 -0.884862436
O	 -0.152733765	 0.000000000	 0.000000000
H	 0.594445200	 -0.407638205	 0.443309808
H	 -0.162215445	 -0.411494802	 -0.866924927
