9
0  1  0  1  0  1   6   3 -4.06611 -3.83133 -3.79239 -4.02717 -3.82686 -3.95491 -2.65459 -2.65482 -2.68384 -3.75986 -5.71189  5.69984 -1.69654 -2.05127
O	 -2.950026327	 -0.000822553	 -0.000687124
H	 -1.985211446	 0.000000000	 -0.000000000
C	 -3.367395399	 1.349073611	 0.000000000
H	 -4.454127184	 1.353335972	 -0.000273784
H	 -3.028138479	 1.891535429	 0.885695490
H	 -3.027671289	 1.892610442	 -0.884862436
O	 0.051314956	 0.000000000	 0.000000000
H	 0.040986883	 -0.407638205	 0.868730869
H	 0.797353126	 -0.411494802	 -0.441673839
