9
0  1  0  1  0  1   6   3 -4.40987 -4.18749 -4.13788 -4.36025 -4.16836 -4.29047 -3.11879 -3.12279 -3.14928 -4.16185 -5.98996  5.15301 -1.50288 -1.82202
O	 0.964814880	 -0.000822553	 0.000687124
H	 -0.000000000	 0.000000000	 0.000000000
C	 1.382183952	 1.349073611	 0.000000000
H	 2.468915738	 1.353335972	 0.000273784
H	 1.042927032	 1.891535429	 -0.885695490
H	 1.042459843	 1.892610442	 0.884862436
O	 -1.852852505	 -0.992605723	 -0.000000000
H	 -2.017458849	 -1.558341295	 -0.757507038
H	 -2.015383350	 -1.561596220	 0.755519850
