9
0  1  0  1  0  1   6   3 -4.41677 -4.03596 -4.07246 -4.45327 -4.11478 -4.32634 -2.34166 -2.34936 -2.38699 -3.84770 -10.08345 13.40486 -3.89097 -3.27813
O	 -2.950026327	 -0.000822553	 -0.000687124
H	 -1.985211446	 0.000000000	 -0.000000000
C	 -3.367395399	 1.349073611	 0.000000000
H	 -4.454127184	 1.353335972	 -0.000273784
H	 -3.028138479	 1.891535429	 0.885695490
H	 -3.027671289	 1.892610442	 -0.884862436
O	 -0.200781749	 0.000000000	 0.000000000
H	 0.371462800	 -0.140314511	 0.757507038
H	 0.373243897	 -0.143739408	 -0.755519850
