9
0  1  0  1  0  1   6   3 -3.70487 -3.55496 -3.51201 -3.66192 -3.53735 -3.61631 -2.76413 -2.76100 -2.77746 -3.55490 -3.99789  2.74891 -0.92138 -1.38455
O	 -2.950026327	 -0.000822553	 -0.000687124
H	 -1.985211446	 0.000000000	 -0.000000000
C	 -3.367395399	 1.349073611	 0.000000000
H	 -4.454127184	 1.353335972	 -0.000273784
H	 -3.028138479	 1.891535429	 0.885695490
H	 -3.027671289	 1.892610442	 -0.884862436
O	 0.254967596	 0.000000000	 0.000000000
H	 0.244639523	 -0.407638205	 0.868730869
H	 1.001005766	 -0.411494802	 -0.441673839
