9
0  1  0  1  0  1   6   3 -4.37232 -4.02782 -3.99845 -4.34295 -4.04253 -4.23204 -2.18570 -2.18685 -2.22437 -3.99682 -8.83224 10.68411 -2.68715 -3.16153
O	 0.964814880	 -0.000822553	 0.000687124
H	 -0.000000000	 0.000000000	 0.000000000
C	 1.382183952	 1.349073611	 0.000000000
H	 2.468915738	 1.353335972	 0.000273784
H	 1.042927032	 1.891535429	 -0.885695490
H	 1.042459843	 1.892610442	 0.884862436
O	 -1.698631237	 0.893345151	 -0.000000000
H	 -2.270875786	 0.753030640	 -0.757507038
H	 -2.272656884	 0.749605743	 0.755519850
