9
0  1  0  1  0  1   6   3  5.19230  5.99554  5.71744  4.91420  5.64333  5.20893  9.45023  9.43203  9.40152  5.94413 -22.28761 48.07955 -12.77222 -7.07559
O	 -2.950026327	 -0.000822553	 -0.000687124
H	 -1.985211446	 0.000000000	 -0.000000000
C	 -3.367395399	 1.349073611	 0.000000000
H	 -4.454127184	 1.353335972	 -0.000273784
H	 -3.028138479	 1.891535429	 0.885695490
H	 -3.027671289	 1.892610442	 -0.884862436
O	 -0.559642965	 0.000000000	 0.000000000
H	 -0.569971038	 -0.407638205	 0.868730869
H	 0.186395205	 -0.411494802	 -0.441673839
