9
0  1  0  1  0  1   6   3 -3.71934 -3.36468 -3.35949 -3.71415 -3.40512 -3.59857 -1.64223 -1.64728 -1.68235 -3.18188 -8.59929 11.71455 -3.22626 -3.07088
O	 -2.950026327	 -0.000822553	 -0.000687124
H	 -1.985211446	 0.000000000	 -0.000000000
C	 -3.367395399	 1.349073611	 0.000000000
H	 -4.454127184	 1.353335972	 -0.000273784
H	 -3.028138479	 1.891535429	 0.885695490
H	 -3.027671289	 1.892610442	 -0.884862436
O	 -0.152337684	 0.000000000	 0.000000000
H	 -0.162665757	 -0.407638205	 0.868730869
H	 0.593700486	 -0.411494802	 -0.441673839
