13
0  1  0  1  0  1   6   7 -2.23680 -2.13740 -2.09646 -2.19586 -2.12991 -2.16923 -1.09147 -1.08546 -1.08830 -2.23023 -1.84442  1.32817 -0.36352 -1.35046
O	 -2.108276125	 0.000000000	 -1.131287311
H	 -2.760196731	 -0.409606415	 -0.557706801
C	 -2.548390917	 1.323882627	 -1.401100599
H	 -1.804423184	 1.775071448	 -2.050212826
H	 -3.509080218	 1.340285844	 -1.917197255
H	 -2.622989217	 1.926072432	 -0.494514234
N	 1.174372815	 0.256487382	 0.293432124
H	 0.210827613	 0.000000000	 0.113128731
H	 1.727634541	 -0.226800176	 -0.401653565
C	 1.325696551	 1.698364848	 0.113128731
H	 2.363095035	 1.979710554	 0.283655943
H	 1.032550990	 2.080653271	 -0.870233275
H	 0.728854212	 2.216430221	 0.861592527
