13
0  1  0  1  0  1   6   7 -2.46270 -2.33674 -2.29191 -2.41787 -2.33448 -2.38424 -1.02191 -1.02128 -1.02494 -2.43293 -2.20606  1.79055 -0.40618 -1.61124
O	 -2.163988998	 0.000000000	 1.131287311
H	 -1.993214008	 -0.409606415	 1.982657372
C	 -2.617711555	 1.323882627	 1.377531258
H	 -2.807875367	 1.775071448	 0.408680188
H	 -3.545009021	 1.340285844	 1.951464270
H	 -1.869883883	 1.926072432	 1.895428463
N	 1.071744652	 0.256487382	 0.123739027
H	 0.108199450	 0.000000000	 -0.056564366
H	 1.625006378	 -0.226800176	 -0.571346662
C	 1.223068388	 1.698364848	 -0.056564366
H	 2.260466872	 1.979710554	 0.113962846
H	 0.929922827	 2.080653271	 -1.039926372
H	 0.626226049	 2.216430221	 0.691899430
