13
0  1  0  1  0  1   6   7 -1.05118 -0.53245 -0.61472 -1.13345 -0.71347 -0.97220  3.21496  3.20024  3.16248 -0.60007 -10.86737 19.24824 -3.74038 -5.24056
O	 2.347029341	 -0.041510359	 0.030653933
H	 2.629055460	 0.328438406	 -0.809210147
C	 2.732943189	 0.870073902	 1.050090095
H	 2.409760140	 0.440441229	 1.993156639
H	 3.813998427	 1.009157371	 1.089130062
H	 2.254468627	 1.843671747	 0.934913560
N	 -0.443435000	 -0.000934504	 -0.022652683
H	 0.546964477	 -0.213149630	 -0.050725156
H	 -0.918422575	 -0.890480834	 0.054182498
C	 -0.725766259	 0.800817513	 1.165581964
H	 -1.791610388	 1.015125828	 1.215369415
H	 -0.430773336	 0.347156556	 2.117553868
H	 -0.212989506	 1.757239215	 1.081153936
