13
0  1  0  1  0  1   6   7 -1.75672 -1.64348 -1.61113 -1.72437 -1.66426 -1.69864 -0.34694 -0.34698 -0.34611 -1.68192 -1.01506  0.95496 -0.16840 -1.45342
O	 0.423741945	 0.000000000	 0.000000000
H	 0.869117961	 -0.215834785	 -0.822695596
C	 0.208719307	 1.404544604	 0.013607765
H	 -0.293777064	 1.635416164	 0.947739310
H	 1.144511082	 1.963765041	 -0.019784070
H	 -0.428990283	 1.731711693	 -0.808818207
N	 -3.494751482	 0.256487382	 -0.180303393
H	 -2.531206279	 0.000000000	 0.000000000
H	 -4.048013207	 -0.226800176	 0.514782296
C	 -3.646075217	 1.698364848	 0.000000000
H	 -4.683473701	 1.979710554	 -0.170527212
H	 -3.352929656	 2.080653271	 0.983362006
H	 -3.049232878	 2.216430221	 -0.748463796
