13
0  1  0  1  0  1   6   7 -2.74328 -2.53032 -2.47596 -2.68892 -2.53671 -2.62967 -0.56927 -0.57172 -0.58350 -2.63873 -3.57515  4.18412 -0.79600 -2.45170
O	 -2.163988998	 0.000000000	 1.131287311
H	 -1.993214008	 -0.409606415	 1.982657372
C	 -2.617711555	 1.323882627	 1.377531258
H	 -2.807875367	 1.775071448	 0.408680188
H	 -3.545009021	 1.340285844	 1.951464270
H	 -1.869883883	 1.926072432	 1.895428463
N	 0.855345752	 0.256487382	 0.236867759
H	 -0.108199450	 0.000000000	 0.056564366
H	 1.408607478	 -0.226800176	 -0.458217930
C	 1.006669488	 1.698364848	 0.056564366
H	 2.044067972	 1.979710554	 0.227091578
H	 0.713523927	 2.080653271	 -0.926797640
H	 0.409827149	 2.216430221	 0.805028162
