13
0  1  0  1  0  1   6   7  3.17895  3.81511  3.60102  2.96485  3.51140  3.18298  7.80671  7.78222  7.75272  3.66870 -17.12065 33.73371 -6.79048 -6.15389
O	 -2.021276833	 -1.131287311	 0.000000000
H	 -2.057046433	 -1.624911647	 0.822695596
C	 -3.130136821	 -0.242799942	 -0.013607765
H	 -3.078829271	 0.307810461	 -0.947739310
H	 -4.082331813	 -0.773609173	 0.019784070
H	 -3.094617037	 0.473056307	 0.808818207
N	 0.357162152	 -0.082898811	 0.180303393
H	 -0.606383050	 -0.339386193	 0.000000000
H	 0.910423878	 -0.566186369	 -0.514782296
C	 0.508485888	 1.358978655	 0.000000000
H	 1.545884372	 1.640324361	 0.170527212
H	 0.215340327	 1.741267078	 -0.983362006
H	 -0.088356451	 1.877044028	 0.748463796
