13
0  1  0  1  0  1   6   7 -1.85690 -1.54972 -1.50739 -1.81457 -1.59997 -1.72812  1.59776  1.59464  1.58495 -1.53156 -3.23764  6.10849 -0.79019 -3.61222
O	 0.423741945	 0.000000000	 0.000000000
H	 0.869117961	 -0.215834785	 -0.822695596
C	 0.208719307	 1.404544604	 0.013607765
H	 -0.293777064	 1.635416164	 0.947739310
H	 1.144511082	 1.963765041	 -0.019784070
H	 -0.428990283	 1.731711693	 -0.808818207
N	 -2.957488168	 0.256487382	 -0.180303393
H	 -1.993942965	 0.000000000	 0.000000000
H	 -3.510749893	 -0.226800176	 0.514782296
C	 -3.108811903	 1.698364848	 0.000000000
H	 -4.146210387	 1.979710554	 -0.170527212
H	 -2.815666342	 2.080653271	 0.983362006
H	 -2.511969564	 2.216430221	 -0.748463796
