13
0  1  0  1  0  1   6   7  0.20697  0.73204  0.72305  0.19798  0.60553  0.35941  5.65863  5.64910  5.62422  0.82538 -6.62528 15.11721 -1.84315 -5.82340
O	 0.423741945	 0.000000000	 0.000000000
H	 0.869117961	 -0.215834785	 -0.822695596
C	 0.208719307	 1.404544604	 0.013607765
H	 -0.293777064	 1.635416164	 0.947739310
H	 1.144511082	 1.963765041	 -0.019784070
H	 -0.428990283	 1.731711693	 -0.808818207
N	 -2.688856512	 0.256487382	 -0.180303393
H	 -1.725311309	 0.000000000	 0.000000000
H	 -3.242118237	 -0.226800176	 0.514782296
C	 -2.840180247	 1.698364848	 0.000000000
H	 -3.877578731	 1.979710554	 -0.170527212
H	 -2.547034686	 2.080653271	 0.983362006
H	 -2.243337908	 2.216430221	 -0.748463796
