13
0  1  0  1  0  1   6   7 -2.07843 -1.89432 -1.85024 -2.03435 -1.92142 -1.98775  0.11956  0.11943  0.11694 -1.92027 -1.72342  2.43097 -0.35419 -2.27363
O	 0.423741945	 0.000000000	 0.000000000
H	 0.869117961	 -0.215834785	 -0.822695596
C	 0.208719307	 1.404544604	 0.013607765
H	 -0.293777064	 1.635416164	 0.947739310
H	 1.144511082	 1.963765041	 -0.019784070
H	 -0.428990283	 1.731711693	 -0.808818207
N	 -3.226119825	 0.256487382	 -0.180303393
H	 -2.262574622	 0.000000000	 0.000000000
H	 -3.779381550	 -0.226800176	 0.514782296
C	 -3.377443560	 1.698364848	 0.000000000
H	 -4.414842044	 1.979710554	 -0.170527212
H	 -3.084297999	 2.080653271	 0.983362006
H	 -2.780601221	 2.216430221	 -0.748463796
