13
0  1  0  1  0  1   6   7 -1.94496 -1.80097 -1.76224 -1.90623 -1.82400 -1.87174 -0.18685 -0.18671 -0.18718 -1.83617 -1.30571  1.52594 -0.24224 -1.81415
O	 0.423741945	 0.000000000	 0.000000000
H	 0.869117961	 -0.215834785	 -0.822695596
C	 0.208719307	 1.404544604	 0.013607765
H	 -0.293777064	 1.635416164	 0.947739310
H	 1.144511082	 1.963765041	 -0.019784070
H	 -0.428990283	 1.731711693	 -0.808818207
N	 -3.360435653	 0.256487382	 -0.180303393
H	 -2.396890450	 0.000000000	 0.000000000
H	 -3.913697378	 -0.226800176	 0.514782296
C	 -3.511759388	 1.698364848	 0.000000000
H	 -4.549157872	 1.979710554	 -0.170527212
H	 -3.218613827	 2.080653271	 0.983362006
H	 -2.914917049	 2.216430221	 -0.748463796
