13
0  1  0  1  0  1   6   7 -1.31136 -0.90240 -0.94818 -1.35715 -1.01505 -1.22766  1.84117  1.82732  1.79216 -0.93701 -9.42028 15.60769 -3.16739 -3.95703
O	 -2.021276833	 -1.131287311	 0.000000000
H	 -2.057046433	 -1.624911647	 0.822695596
C	 -3.130136821	 -0.242799942	 -0.013607765
H	 -3.078829271	 0.307810461	 -0.947739310
H	 -4.082331813	 -0.773609173	 0.019784070
H	 -3.094617037	 0.473056307	 0.808818207
N	 0.559289835	 0.030229920	 0.180303393
H	 -0.404255367	 -0.226257462	 0.000000000
H	 1.112551561	 -0.453057638	 -0.514782296
C	 0.710613571	 1.472107386	 0.000000000
H	 1.748012055	 1.753453092	 0.170527212
H	 0.417468010	 1.854395809	 -0.983362006
H	 0.113771232	 1.990172759	 0.748463796
