13
0  1  0  1  0  1   6   7 -2.23291 -2.13582 -2.09842 -2.19552 -2.13382 -2.17008 -1.05638 -1.05509 -1.05649 -2.22084 -1.78124  1.16923 -0.29560 -1.31323
O	 -2.163988998	 0.000000000	 1.131287311
H	 -1.993214008	 -0.409606415	 1.982657372
C	 -2.617711555	 1.323882627	 1.377531258
H	 -2.807875367	 1.775071448	 0.408680188
H	 -3.545009021	 1.340285844	 1.951464270
H	 -1.869883883	 1.926072432	 1.895428463
N	 1.179944102	 0.256487382	 0.067174662
H	 0.216398900	 0.000000000	 -0.113128731
H	 1.733205828	 -0.226800176	 -0.627911027
C	 1.331267838	 1.698364848	 -0.113128731
H	 2.368666322	 1.979710554	 0.057398481
H	 1.038122277	 2.080653271	 -1.096490737
H	 0.734425499	 2.216430221	 0.635335065
