13
0  1  0  1  0  1   6   7 -2.38938 -2.27088 -2.22022 -2.33872 -2.26179 -2.30822 -1.02844 -1.02320 -1.02784 -2.34381 -2.07492  1.63180 -0.36741 -1.53328
O	 0.077925282	 0.000000000	 0.000000000
H	 -0.092849708	 -0.409606415	 -0.851370061
C	 0.531647840	 1.323882627	 -0.246243947
H	 0.721811652	 1.775071448	 0.722607123
H	 1.458945306	 1.340285844	 -0.820176959
H	 -0.216179834	 1.926072432	 -0.764141151
N	 -3.460169815	 0.256487382	 -0.180303393
H	 -2.496624612	 0.000000000	 0.000000000
H	 -4.013431540	 -0.226800176	 0.514782296
C	 -3.611493550	 1.698364848	 0.000000000
H	 -4.648892034	 1.979710554	 -0.170527212
H	 -3.318347989	 2.080653271	 0.983362006
H	 -3.014651211	 2.216430221	 -0.748463796
