13
0  1  0  1  0  1   6   7 -2.74056 -2.57409 -2.55657 -2.72304 -2.60825 -2.67885 -1.02287 -1.02403 -1.03408 -2.64726 -2.58815  2.54261 -0.64186 -1.95986
O	 -0.002750421	 0.000000000	 0.000000000
H	 0.649170185	 -0.409606415	 -0.573580510
C	 0.437364372	 1.323882627	 0.269813288
H	 -0.306603361	 1.775071448	 0.918925515
H	 1.398053673	 1.340285844	 0.785909944
H	 0.511962670	 1.926072432	 -0.636773077
N	 -3.339111035	 0.256487382	 -0.180303393
H	 -2.375565832	 0.000000000	 0.000000000
H	 -3.892372760	 -0.226800176	 0.514782296
C	 -3.490434770	 1.698364848	 0.000000000
H	 -4.527833254	 1.979710554	 -0.170527212
H	 -3.197289209	 2.080653271	 0.983362006
H	 -2.893592431	 2.216430221	 -0.748463796
