13
0  1  0  1  0  1   6   7 -2.44434 -2.35264 -2.32925 -2.42095 -2.35193 -2.39343 -1.46247 -1.45712 -1.46091 -2.42239 -2.29657  1.54443 -0.43121 -1.23904
O	 0.009754364	 0.000000000	 0.000000000
H	 0.045523965	 -0.493624336	 -0.822695596
C	 1.118614353	 0.888487369	 0.013607765
H	 1.067306803	 1.439097772	 0.947739310
H	 2.070809345	 0.357678138	 -0.019784070
H	 1.083094568	 1.604343619	 -0.808818207
N	 -3.453352724	 0.256487382	 -0.180303393
H	 -2.489807521	 0.000000000	 0.000000000
H	 -4.006614449	 -0.226800176	 0.514782296
C	 -3.604676459	 1.698364848	 0.000000000
H	 -4.642074943	 1.979710554	 -0.170527212
H	 -3.311530898	 2.080653271	 0.983362006
H	 -3.007834120	 2.216430221	 -0.748463796
