13
0  1  0  1  0  1   6   7 -2.05520 -1.90863 -1.85144 -1.99801 -1.91144 -1.96191 -0.20544 -0.20218 -0.20317 -1.97418 -1.74506  2.03225 -0.30138 -1.95999
O	 -2.610598501	 1.131287311	 0.000000000
H	 -3.055974516	 0.915452526	 0.822695596
C	 -2.395575862	 2.535831915	 -0.013607765
H	 -1.893079491	 2.766703475	 -0.947739310
H	 -3.331367637	 3.095052352	 0.019784070
H	 -1.757866273	 2.862999004	 0.808818207
N	 0.963545202	 0.256487382	 0.180303393
H	 0.000000000	 -0.000000000	 0.000000000
H	 1.516806928	 -0.226800176	 -0.514782296
C	 1.114868938	 1.698364848	 0.000000000
H	 2.152267422	 1.979710554	 0.170527212
H	 0.821723377	 2.080653271	 -0.983362006
H	 0.518026599	 2.216430221	 0.748463796
