13
0  1  0  1  0  1   6   7 -2.62775 -2.50896 -2.48346 -2.60226 -2.51099 -2.56662 -1.42906 -1.42485 -1.43165 -2.58003 -2.78345  2.29623 -0.58646 -1.50635
O	 0.009754364	 0.000000000	 0.000000000
H	 0.045523965	 -0.493624336	 -0.822695596
C	 1.118614353	 0.888487369	 0.013607765
H	 1.067306803	 1.439097772	 0.947739310
H	 2.070809345	 0.357678138	 -0.019784070
H	 1.083094568	 1.604343619	 -0.808818207
N	 -3.339736274	 0.256487382	 -0.180303393
H	 -2.376191071	 0.000000000	 0.000000000
H	 -3.892997999	 -0.226800176	 0.514782296
C	 -3.491060009	 1.698364848	 0.000000000
H	 -4.528458493	 1.979710554	 -0.170527212
H	 -3.197914448	 2.080653271	 0.983362006
H	 -2.894217670	 2.216430221	 -0.748463796
