13
0  1  0  1  0  1   6   7 -0.81061 -0.28379 -0.40106 -0.92788 -0.50360 -0.76529  3.72422  3.71091  3.67204 -0.22714 -9.59584 18.35088 -3.57601 -5.40617
O	 -0.002750421	 0.000000000	 0.000000000
H	 0.649170185	 -0.409606415	 -0.573580510
C	 0.437364372	 1.323882627	 0.269813288
H	 -0.306603361	 1.775071448	 0.918925515
H	 1.398053673	 1.340285844	 0.785909944
H	 0.511962670	 1.926072432	 -0.636773077
N	 -2.774154985	 0.256487382	 -0.180303393
H	 -1.810609782	 0.000000000	 0.000000000
H	 -3.327416710	 -0.226800176	 0.514782296
C	 -2.925478720	 1.698364848	 0.000000000
H	 -3.962877204	 1.979710554	 -0.170527212
H	 -2.632333159	 2.080653271	 0.983362006
H	 -2.328636381	 2.216430221	 -0.748463796
