13
0  1  0  1  0  1   6   7 -2.69768 -2.57351 -2.54371 -2.66788 -2.58063 -2.63385 -1.35304 -1.35002 -1.35661 -2.67347 -2.49246  1.88310 -0.49828 -1.56582
O	 2.347029341	 -0.041510359	 0.030653933
H	 2.629055460	 0.328438406	 -0.809210147
C	 2.732943189	 0.870073902	 1.050090095
H	 2.409760140	 0.440441229	 1.993156639
H	 3.813998427	 1.009157371	 1.089130062
H	 2.254468627	 1.843671747	 0.934913560
N	 -1.118459324	 -0.065299231	 -0.053169841
H	 -0.128059847	 -0.277514357	 -0.081242314
H	 -1.593446899	 -0.954845561	 0.023665340
C	 -1.400790583	 0.736452786	 1.135064806
H	 -2.466634712	 0.950761101	 1.184852257
H	 -1.105797660	 0.282791829	 2.087036710
H	 -0.888013830	 1.692874488	 1.050636778
