13
0  1  0  1  0  1   6   7 -2.85688 -2.52510 -2.52168 -2.85346 -2.59522 -2.75764  0.05088  0.04435  0.01325 -2.61349 -6.25981  8.94167 -1.83903 -3.45632
O	 2.347029341	 -0.041510359	 0.030653933
H	 2.629055460	 0.328438406	 -0.809210147
C	 2.732943189	 0.870073902	 1.050090095
H	 2.409760140	 0.440441229	 1.993156639
H	 3.813998427	 1.009157371	 1.089130062
H	 2.254468627	 1.843671747	 0.934913560
N	 -0.668443108	 -0.022389413	 -0.032825069
H	 0.321956369	 -0.234604539	 -0.060897542
H	 -1.143430683	 -0.911935743	 0.044010112
C	 -0.950774367	 0.779362604	 1.155409578
H	 -2.016618496	 0.993670919	 1.205197029
H	 -0.655781444	 0.325701647	 2.107381482
H	 -0.437997614	 1.735784306	 1.070981550
