13
0  1  0  1  0  1   6   7  0.41896  0.87361  0.94709  0.49244  0.84540  0.63214  5.33462  5.33289  5.31106  0.82636 -6.42530 14.16665 -1.61072 -5.30427
O	 -2.610598501	 1.131287311	 0.000000000
H	 -3.055974516	 0.915452526	 0.822695596
C	 -2.395575862	 2.535831915	 -0.013607765
H	 -1.893079491	 2.766703475	 -0.947739310
H	 -3.331367637	 3.095052352	 0.019784070
H	 -1.757866273	 2.862999004	 0.808818207
N	 0.441425502	 0.482744844	 0.180303393
H	 -0.522119700	 0.226257462	 0.000000000
H	 0.994687228	 -0.000542714	 -0.514782296
C	 0.592749238	 1.924622310	 0.000000000
H	 1.630147722	 2.205968016	 0.170527212
H	 0.299603677	 2.306910733	 -0.983362006
H	 -0.004093101	 2.442687683	 0.748463796
