13
0  1  0  1  0  1   6   7  3.94206  4.67762  4.54159  3.80603  4.42211  4.05117 10.11765 10.09795 10.06295  4.57903 -16.21998 33.53912 -5.27692 -7.46319
O	 -2.163988998	 0.000000000	 1.131287311
H	 -1.993214008	 -0.409606415	 1.982657372
C	 -2.617711555	 1.323882627	 1.377531258
H	 -2.807875367	 1.775071448	 0.408680188
H	 -3.545009021	 1.340285844	 1.951464270
H	 -1.869883883	 1.926072432	 1.895428463
N	 0.314348503	 0.256487382	 0.519689586
H	 -0.649196699	 0.000000000	 0.339386193
H	 0.867610229	 -0.226800176	 -0.175396103
C	 0.465672239	 1.698364848	 0.339386193
H	 1.503070723	 1.979710554	 0.509913405
H	 0.172526678	 2.080653271	 -0.643975813
H	 -0.131170100	 2.216430221	 1.087849989
