13
0  1  0  1  0  1   6   7 -3.07193 -2.81038 -2.78893 -3.05048 -2.85168 -2.97655 -0.67478 -0.67825 -0.70182 -2.91303 -4.85596  6.07110 -1.30723 -2.82094
O	 2.347029341	 -0.041510359	 0.030653933
H	 2.629055460	 0.328438406	 -0.809210147
C	 2.732943189	 0.870073902	 1.050090095
H	 2.409760140	 0.440441229	 1.993156639
H	 3.813998427	 1.009157371	 1.089130062
H	 2.254468627	 1.843671747	 0.934913560
N	 -0.780947162	 -0.033116868	 -0.037911262
H	 0.209452315	 -0.245331994	 -0.065983735
H	 -1.255934737	 -0.922663198	 0.038923919
C	 -1.063278421	 0.768635149	 1.150323385
H	 -2.129122550	 0.982943464	 1.200110836
H	 -0.768285498	 0.314974192	 2.102295289
H	 -0.550501668	 1.725056851	 1.065895357
