13
0  1  0  1  0  1   6   7 -2.61395 -2.44841 -2.39637 -2.56191 -2.44390 -2.51617 -0.90065 -0.89600 -0.90560 -2.57052 -2.86817  3.00098 -0.68439 -2.01894
O	 -2.108276125	 0.000000000	 -1.131287311
H	 -2.760196731	 -0.409606415	 -0.557706801
C	 -2.548390917	 1.323882627	 -1.401100599
H	 -1.804423184	 1.775071448	 -2.050212826
H	 -3.509080218	 1.340285844	 -1.917197255
H	 -2.622989217	 1.926072432	 -0.494514234
N	 0.963545202	 0.256487382	 0.180303393
H	 0.000000000	 -0.000000000	 0.000000000
H	 1.516806928	 -0.226800176	 -0.514782296
C	 1.114868938	 1.698364848	 0.000000000
H	 2.152267422	 1.979710554	 0.170527212
H	 0.821723377	 2.080653271	 -0.983362006
H	 0.518026599	 2.216430221	 0.748463796
