13
0  1  0  1  0  1   6   7 -2.64922 -2.37347 -2.32175 -2.59749 -2.39316 -2.51888  0.02715  0.02226  0.00428 -2.47410 -4.68011  6.38211 -1.13562 -3.04048
O	 -2.163988998	 0.000000000	 1.131287311
H	 -1.993214008	 -0.409606415	 1.982657372
C	 -2.617711555	 1.323882627	 1.377531258
H	 -2.807875367	 1.775071448	 0.408680188
H	 -3.545009021	 1.340285844	 1.951464270
H	 -1.869883883	 1.926072432	 1.895428463
N	 0.747146302	 0.256487382	 0.293432124
H	 -0.216398900	 0.000000000	 0.113128731
H	 1.300408028	 -0.226800176	 -0.401653565
C	 0.898470038	 1.698364848	 0.113128731
H	 1.935868522	 1.979710554	 0.283655943
H	 0.605324477	 2.080653271	 -0.870233275
H	 0.301627699	 2.216430221	 0.861592527
