13
0  1  0  1  0  1   6   7  5.10422  5.91997  5.58748  4.77173  5.45881  5.04667 11.75704 11.73467 11.69930  5.87547 -17.80611 39.60102 -7.62140 -8.29804
O	 -0.002750421	 0.000000000	 0.000000000
H	 0.649170185	 -0.409606415	 -0.573580510
C	 0.437364372	 1.323882627	 0.269813288
H	 -0.306603361	 1.775071448	 0.918925515
H	 1.398053673	 1.340285844	 0.785909944
H	 0.511962670	 1.926072432	 -0.636773077
N	 -2.548172565	 0.256487382	 -0.180303393
H	 -1.584627362	 0.000000000	 0.000000000
H	 -3.101434290	 -0.226800176	 0.514782296
C	 -2.699496300	 1.698364848	 0.000000000
H	 -3.736894784	 1.979710554	 -0.170527212
H	 -2.406350739	 2.080653271	 0.983362006
H	 -2.102653961	 2.216430221	 -0.748463796
