13
0  1  0  1  0  1   6   7 -2.59189 -2.43886 -2.38072 -2.53375 -2.43080 -2.49366 -0.93393 -0.93024 -0.93816 -2.51441 -2.57650  2.44471 -0.51228 -1.87033
O	 0.077925282	 0.000000000	 0.000000000
H	 -0.092849708	 -0.409606415	 -0.851370061
C	 0.531647840	 1.323882627	 -0.246243947
H	 0.721811652	 1.775071448	 0.722607123
H	 1.458945306	 1.340285844	 -0.820176959
H	 -0.216179834	 1.926072432	 -0.764141151
N	 -3.343144820	 0.256487382	 -0.180303393
H	 -2.379599617	 0.000000000	 0.000000000
H	 -3.896406545	 -0.226800176	 0.514782296
C	 -3.494468555	 1.698364848	 0.000000000
H	 -4.531867039	 1.979710554	 -0.170527212
H	 -3.201322994	 2.080653271	 0.983362006
H	 -2.897626216	 2.216430221	 -0.748463796
