13
0  1  0  1  0  1   6   7 -2.65115 -2.48726 -2.43614 -2.60003 -2.48723 -2.55540 -0.88285 -0.88347 -0.89047 -2.59229 -2.78232  2.73878 -0.56505 -1.98369
O	 -2.163988998	 0.000000000	 1.131287311
H	 -1.993214008	 -0.409606415	 1.982657372
C	 -2.617711555	 1.323882627	 1.377531258
H	 -2.807875367	 1.775071448	 0.408680188
H	 -3.545009021	 1.340285844	 1.951464270
H	 -1.869883883	 1.926072432	 1.895428463
N	 0.963545202	 0.256487382	 0.180303393
H	 0.000000000	 -0.000000000	 0.000000000
H	 1.516806928	 -0.226800176	 -0.514782296
C	 1.114868938	 1.698364848	 0.000000000
H	 2.152267422	 1.979710554	 0.170527212
H	 0.821723377	 2.080653271	 -0.983362006
H	 0.518026599	 2.216430221	 0.748463796
