13
0  1  0  1  0  1   6   7  3.35021  4.06461  3.90959  3.19519  3.79321  3.43181  9.15963  9.14541  9.10827  3.79242 -16.22588 33.29833 -5.97137 -7.30865
O	 -2.108276125	 0.000000000	 -1.131287311
H	 -2.760196731	 -0.409606415	 -0.557706801
C	 -2.548390917	 1.323882627	 -1.401100599
H	 -1.804423184	 1.775071448	 -2.050212826
H	 -3.509080218	 1.340285844	 -1.917197255
H	 -2.622989217	 1.926072432	 -0.494514234
N	 0.331062364	 0.256487382	 -0.159082800
H	 -0.632482838	 0.000000000	 -0.339386193
H	 0.884324090	 -0.226800176	 -0.854168489
C	 0.482386100	 1.698364848	 -0.339386193
H	 1.519784584	 1.979710554	 -0.168858981
H	 0.189240539	 2.080653271	 -1.322748199
H	 -0.114456239	 2.216430221	 0.409077603
