13
0  1  0  1  0  1   6   7 -1.24705 -0.79295 -0.78359 -1.23769 -0.87800 -1.09899  2.81756  2.80608  2.77518 -0.84702 -8.45727 14.73698 -2.39627 -4.73046
O	 -2.163988998	 0.000000000	 1.131287311
H	 -1.993214008	 -0.409606415	 1.982657372
C	 -2.617711555	 1.323882627	 1.377531258
H	 -2.807875367	 1.775071448	 0.408680188
H	 -3.545009021	 1.340285844	 1.951464270
H	 -1.869883883	 1.926072432	 1.895428463
N	 0.530747402	 0.256487382	 0.406560855
H	 -0.432797800	 0.000000000	 0.226257462
H	 1.084009128	 -0.226800176	 -0.288524834
C	 0.682071138	 1.698364848	 0.226257462
H	 1.719469622	 1.979710554	 0.396784674
H	 0.388925577	 2.080653271	 -0.757104544
H	 0.085228799	 2.216430221	 0.974721258
