13
0  1  0  1  0  1   6   7 -2.44621 -2.31824 -2.27082 -2.39879 -2.31069 -2.36397 -1.04653 -1.04090 -1.04647 -2.42619 -2.27874  1.99714 -0.49601 -1.64857
O	 -2.108276125	 0.000000000	 -1.131287311
H	 -2.760196731	 -0.409606415	 -0.557706801
C	 -2.548390917	 1.323882627	 -1.401100599
H	 -1.804423184	 1.775071448	 -2.050212826
H	 -3.509080218	 1.340285844	 -1.917197255
H	 -2.622989217	 1.926072432	 -0.494514234
N	 1.068959008	 0.256487382	 0.236867759
H	 0.105413806	 0.000000000	 0.056564366
H	 1.622220734	 -0.226800176	 -0.458217930
C	 1.220282744	 1.698364848	 0.056564366
H	 2.257681228	 1.979710554	 0.227091578
H	 0.927137183	 2.080653271	 -0.926797640
H	 0.623440405	 2.216430221	 0.805028162
