13
0  1  0  1  0  1   6   7 -2.65404 -2.49953 -2.46117 -2.61568 -2.49616 -2.57061 -1.21781 -1.21800 -1.23070 -2.59280 -3.34193  3.23350 -0.77380 -1.71057
O	 -2.021276833	 -1.131287311	 0.000000000
H	 -2.057046433	 -1.624911647	 0.822695596
C	 -3.130136821	 -0.242799942	 -0.013607765
H	 -3.078829271	 0.307810461	 -0.947739310
H	 -4.082331813	 -0.773609173	 0.019784070
H	 -3.094617037	 0.473056307	 0.808818207
N	 0.963545202	 0.256487382	 0.180303393
H	 0.000000000	 -0.000000000	 0.000000000
H	 1.516806928	 -0.226800176	 -0.514782296
C	 1.114868938	 1.698364848	 0.000000000
H	 2.152267422	 1.979710554	 0.170527212
H	 0.821723377	 2.080653271	 -0.983362006
H	 0.518026599	 2.216430221	 0.748463796
