13
0  1  0  1  0  1   6   7 -2.49608 -2.37647 -2.33887 -2.45848 -2.36807 -2.42379 -1.31643 -1.31477 -1.32296 -2.46704 -2.68163  2.17267 -0.55878 -1.39930
O	 -2.021276833	 -1.131287311	 0.000000000
H	 -2.057046433	 -1.624911647	 0.822695596
C	 -3.130136821	 -0.242799942	 -0.013607765
H	 -3.078829271	 0.307810461	 -0.947739310
H	 -4.082331813	 -0.773609173	 0.019784070
H	 -3.094617037	 0.473056307	 0.808818207
N	 1.064609044	 0.313051748	 0.180303393
H	 0.101063842	 0.056564366	 0.000000000
H	 1.617870770	 -0.170235810	 -0.514782296
C	 1.215932780	 1.754929214	 0.000000000
H	 2.253331264	 2.036274920	 0.170527212
H	 0.922787219	 2.137217637	 -0.983362006
H	 0.619090441	 2.272994587	 0.748463796
