13
0  1  0  1  0  1   6   7 -2.06862 -1.87730 -1.80762 -1.99894 -1.87627 -1.94853  0.28536  0.28877  0.28559 -1.93818 -2.31787  3.32366 -0.44886 -2.49511
O	 -2.610598501	 1.131287311	 0.000000000
H	 -3.055974516	 0.915452526	 0.822695596
C	 -2.395575862	 2.535831915	 -0.013607765
H	 -1.893079491	 2.766703475	 -0.947739310
H	 -3.331367637	 3.095052352	 0.019784070
H	 -1.757866273	 2.862999004	 0.808818207
N	 0.833015277	 0.313051748	 0.180303393
H	 -0.130529925	 0.056564366	 0.000000000
H	 1.386277003	 -0.170235810	 -0.514782296
C	 0.984339013	 1.754929214	 0.000000000
H	 2.021737497	 2.036274920	 0.170527212
H	 0.691193452	 2.137217637	 -0.983362006
H	 0.387496674	 2.272994587	 0.748463796
