13
0  1  0  1  0  1   6   7 -2.87820 -2.66689 -2.65415 -2.86546 -2.71429 -2.80827 -0.79298 -0.79562 -0.81122 -2.73233 -3.25395  3.79206 -0.88513 -2.38531
O	 -0.002750421	 0.000000000	 0.000000000
H	 0.649170185	 -0.409606415	 -0.573580510
C	 0.437364372	 1.323882627	 0.269813288
H	 -0.306603361	 1.775071448	 0.918925515
H	 1.398053673	 1.340285844	 0.785909944
H	 0.511962670	 1.926072432	 -0.636773077
N	 -3.226119825	 0.256487382	 -0.180303393
H	 -2.262574622	 0.000000000	 0.000000000
H	 -3.779381550	 -0.226800176	 0.514782296
C	 -3.377443560	 1.698364848	 0.000000000
H	 -4.414842044	 1.979710554	 -0.170527212
H	 -3.084297999	 2.080653271	 0.983362006
H	 -2.780601221	 2.216430221	 -0.748463796
