13
0  1  0  1  0  1   6   7 -2.55837 -2.30291 -2.30078 -2.55625 -2.34830 -2.47811 -0.37400 -0.37595 -0.39868 -2.33249 -5.48376  7.50348 -1.58740 -2.76481
O	 0.009754364	 0.000000000	 0.000000000
H	 0.045523965	 -0.493624336	 -0.822695596
C	 1.118614353	 0.888487369	 0.013607765
H	 1.067306803	 1.439097772	 0.947739310
H	 2.070809345	 0.357678138	 -0.019784070
H	 1.083094568	 1.604343619	 -0.808818207
N	 -2.998886926	 0.256487382	 -0.180303393
H	 -2.035341723	 0.000000000	 0.000000000
H	 -3.552148651	 -0.226800176	 0.514782296
C	 -3.150210661	 1.698364848	 0.000000000
H	 -4.187609145	 1.979710554	 -0.170527212
H	 -2.857065100	 2.080653271	 0.983362006
H	 -2.553368322	 2.216430221	 -0.748463796
