13
0  1  0  1  0  1   6   7  4.74281  5.54508  5.26536  4.46310  5.13748  4.73369 10.97113 10.94646 10.91347  5.26641 -19.73826 40.93787 -7.88399 -8.04920
O	 2.347029341	 -0.041510359	 0.030653933
H	 2.629055460	 0.328438406	 -0.809210147
C	 2.732943189	 0.870073902	 1.050090095
H	 2.409760140	 0.440441229	 1.993156639
H	 3.813998427	 1.009157371	 1.089130062
H	 2.254468627	 1.843671747	 0.934913560
N	 -0.218426892	 0.020520405	 -0.012480297
H	 0.771972585	 -0.191694721	 -0.040552770
H	 -0.693414467	 -0.869025925	 0.064354884
C	 -0.500758151	 0.822272422	 1.175754350
H	 -1.566602280	 1.036580737	 1.225541801
H	 -0.205765228	 0.368611465	 2.127726254
H	 0.012018602	 1.778694124	 1.091326322
