13
0  1  0  1  0  1   6   7 -2.88441 -2.61645 -2.61528 -2.88324 -2.68477 -2.80910 -0.35105 -0.35553 -0.37827 -2.66309 -4.16201  5.64608 -1.23504 -2.91212
O	 -0.002750421	 0.000000000	 0.000000000
H	 0.649170185	 -0.409606415	 -0.573580510
C	 0.437364372	 1.323882627	 0.269813288
H	 -0.306603361	 1.775071448	 0.918925515
H	 1.398053673	 1.340285844	 0.785909944
H	 0.511962670	 1.926072432	 -0.636773077
N	 -3.113128615	 0.256487382	 -0.180303393
H	 -2.149583412	 0.000000000	 0.000000000
H	 -3.666390340	 -0.226800176	 0.514782296
C	 -3.264452350	 1.698364848	 0.000000000
H	 -4.301850834	 1.979710554	 -0.170527212
H	 -2.971306789	 2.080653271	 0.983362006
H	 -2.667610011	 2.216430221	 -0.748463796
