14
0  1  0  1  0  1   7   7 -0.98156 -0.51652 -0.71759 -1.18264 -0.81020 -1.03089  3.38556  3.36869  3.35596 -0.91069 -13.05180 22.05988 -4.72032 -5.19846
N	 -3.176577599	 0.470322378	 0.000000000
H	 -2.276602188	 -0.000000000	 0.000000000
H	 -3.828133865	 -0.165471128	 -0.440871011
C	 -3.593891554	 0.703735305	 1.380846800
H	 -4.562354466	 1.200561943	 1.390941251
H	 -3.670011283	 -0.193060701	 2.003864821
H	 -2.884753720	 1.377430470	 1.858431818
N	 -0.390831916	 0.000000000	 0.000000000
H	 -0.228289652	 -0.050364281	 -0.997670364
H	 -0.018850832	 -0.860445488	 0.380592755
C	 0.345774232	 1.140854439	 0.552305921
H	 0.210167099	 1.160277525	 1.631475907
H	 1.418971306	 1.138381599	 0.346442287
H	 -0.079901037	 2.058850478	 0.153824565
