14
0  1  0  1  0  1   7   7 -3.22144 -3.02979 -3.06110 -3.25275 -3.13764 -3.20673 -1.12466 -1.13298 -1.13901 -3.11543 -3.36661  3.28901 -0.75172 -2.28611
N	 -3.176577599	 0.470322378	 0.000000000
H	 -2.276602188	 -0.000000000	 0.000000000
H	 -3.828133865	 -0.165471128	 -0.440871011
C	 -3.593891554	 0.703735305	 1.380846800
H	 -4.562354466	 1.200561943	 1.390941251
H	 -3.670011283	 -0.193060701	 2.003864821
H	 -2.884753720	 1.377430470	 1.858431818
N	 0.163437234	 0.000000000	 0.000000000
H	 -0.191682877	 0.037654385	 -0.946981815
H	 1.005303250	 -0.559177109	 -0.046580912
C	 0.498040342	 1.356312000	 0.444564750
H	 0.927509543	 1.305329320	 1.442728755
H	 1.201077102	 1.890768995	 -0.199044562
H	 -0.417960733	 1.938482256	 0.513291581
