14
0  1  0  1  0  1   7   7 -2.82382 -2.65259 -2.65840 -2.82962 -2.73539 -2.79091 -0.84728 -0.85642 -0.85888 -2.75249 -2.22222  2.00569 -0.48044 -2.05552
N	 -3.176577599	 0.470322378	 0.000000000
H	 -2.276602188	 -0.000000000	 0.000000000
H	 -3.828133865	 -0.165471128	 -0.440871011
C	 -3.593891554	 0.703735305	 1.380846800
H	 -4.562354466	 1.200561943	 1.390941251
H	 -3.670011283	 -0.193060701	 2.003864821
H	 -2.884753720	 1.377430470	 1.858431818
N	 0.468157210	 0.000000000	 0.000000000
H	 1.110707463	 0.037654385	 -0.781033945
H	 0.929430471	 -0.559177109	 0.705786900
C	 0.250454397	 1.356312000	 0.512057167
H	 -0.399246388	 1.305329320	 1.383070407
H	 1.159354791	 1.890768995	 0.799100204
H	 -0.267065322	 1.938482256	 -0.246859618
