14
0  1  0  1  0  1   7   7 -3.09562 -2.81727 -2.84736 -3.12572 -2.94670 -3.05343  0.13810  0.12993  0.12227 -2.92640 -4.05164  5.47392 -0.91859 -3.43009
N	 0.899975411	 0.470322378	 -0.000000000
H	 -0.000000000	 -0.000000000	 -0.000000000
H	 1.551531677	 -0.165471128	 0.440871011
C	 1.317289366	 0.703735305	 -1.380846800
H	 2.285752279	 1.200561943	 -1.390941251
H	 1.393409096	 -0.193060701	 -2.003864821
H	 0.608151532	 1.377430470	 -1.858431818
N	 -2.318759004	 0.000000000	 -1.081386039
H	 -2.961309256	 0.037654385	 -0.300352094
H	 -2.780032264	 -0.559177109	 -1.787172939
C	 -2.101056190	 1.356312000	 -1.593443205
H	 -1.451355406	 1.305329320	 -2.464456446
H	 -3.009956584	 1.890768995	 -1.880486243
H	 -1.583536472	 1.938482256	 -0.834526420
