14
0  1  0  1  0  1   7   7 -3.25439 -3.09126 -3.10209 -3.26521 -3.16534 -3.22454 -1.48751 -1.49642 -1.49987 -3.25599 -3.24691  2.56532 -0.66268 -1.91172
N	 0.899975411	 0.470322378	 -0.000000000
H	 -0.000000000	 -0.000000000	 -0.000000000
H	 1.551531677	 -0.165471128	 0.440871011
C	 1.317289366	 0.703735305	 -1.380846800
H	 2.285752279	 1.200561943	 -1.390941251
H	 1.393409096	 -0.193060701	 -2.003864821
H	 0.608151532	 1.377430470	 -1.858431818
N	 -2.277988523	 0.000000000	 1.252131203
H	 -1.922868411	 0.037654385	 2.199113017
H	 -3.119854538	 -0.559177109	 1.298712114
C	 -2.612591630	 1.356312000	 0.807566453
H	 -3.042060832	 1.305329320	 -0.190597552
H	 -3.315628390	 1.890768995	 1.451175764
H	 -1.696590556	 1.938482256	 0.738839622
