14
0  1  0  1  0  1   7   7 -0.75937 -0.19520 -0.48174 -1.04591 -0.60968 -0.86903  4.71365  4.69578  4.67880 -0.22850 -11.77393 22.01056 -4.22479 -6.24034
N	 -3.176577599	 0.470322378	 0.000000000
H	 -2.276602188	 -0.000000000	 0.000000000
H	 -3.828133865	 -0.165471128	 -0.440871011
C	 -3.593891554	 0.703735305	 1.380846800
H	 -4.562354466	 1.200561943	 1.390941251
H	 -3.670011283	 -0.193060701	 2.003864821
H	 -2.884753720	 1.377430470	 1.858431818
N	 -0.417524533	 0.000000000	 0.000000000
H	 -0.772644644	 0.037654385	 -0.946981815
H	 0.424341483	 -0.559177109	 -0.046580912
C	 -0.082921425	 1.356312000	 0.444564750
H	 0.346547776	 1.305329320	 1.442728755
H	 0.620115335	 1.890768995	 -0.199044562
H	 -0.998922500	 1.938482256	 0.513291581
