14
0  1  0  1  0  1   7   7 -1.75022 -1.25058 -1.50058 -2.00022 -1.60447 -1.83713  2.78090  2.76702  2.75786 -1.52562 -11.95410 20.43945 -4.51040 -5.50057
N	 0.899975411	 0.470322378	 -0.000000000
H	 -0.000000000	 -0.000000000	 -0.000000000
H	 1.551531677	 -0.165471128	 0.440871011
C	 1.317289366	 0.703735305	 -1.380846800
H	 2.285752279	 1.200561943	 -1.390941251
H	 1.393409096	 -0.193060701	 -2.003864821
H	 0.608151532	 1.377430470	 -1.858431818
N	 -1.641511213	 -0.910640875	 0.000000000
H	 -1.804053476	 -0.961005156	 0.997670364
H	 -2.013492296	 -1.771086362	 -0.380592755
C	 -2.378117360	 0.230213564	 -0.552305921
H	 -2.242510228	 0.249636650	 -1.631475907
H	 -3.451314434	 0.227740725	 -0.346442287
H	 -1.952442091	 1.148209603	 -0.153824565
