14
0  1  0  1  0  1   7   7 11.25727 12.45262 11.71839 10.52304 11.53225 10.93566 22.62096 22.60049 22.56934 11.90530 -26.52570 58.94568 -7.85343 -12.66125
N	 0.899975411	 0.470322378	 -0.000000000
H	 -0.000000000	 -0.000000000	 -0.000000000
H	 1.551531677	 -0.165471128	 0.440871011
C	 1.317289366	 0.703735305	 -1.380846800
H	 2.285752279	 1.200561943	 -1.390941251
H	 1.393409096	 -0.193060701	 -2.003864821
H	 0.608151532	 1.377430470	 -1.858431818
N	 -1.711399551	 0.796810766	 0.000000000
H	 -1.836287429	 0.912394354	 0.997670364
H	 -2.642557743	 0.688733090	 -0.380592755
C	 -1.091693698	 2.005157621	 -0.552305921
H	 -1.007069246	 1.897429943	 -1.631475907
H	 -1.630433777	 2.933337131	 -0.346442287
H	 -0.083848173	 2.095510044	 -0.153824565
