14
0  1  0  1  0  1   7   7 -3.51773 -3.31680 -3.33811 -3.53904 -3.40960 -3.48672 -1.38815 -1.39836 -1.40377 -3.49126 -4.01843  3.74190 -0.89534 -2.31940
N	 0.899975411	 0.470322378	 -0.000000000
H	 -0.000000000	 -0.000000000	 -0.000000000
H	 1.551531677	 -0.165471128	 0.440871011
C	 1.317289366	 0.703735305	 -1.380846800
H	 2.285752279	 1.200561943	 -1.390941251
H	 1.393409096	 -0.193060701	 -2.003864821
H	 0.608151532	 1.377430470	 -1.858431818
N	 -2.174443590	 0.000000000	 1.195216149
H	 -1.819323478	 0.037654385	 2.142197963
H	 -3.016309605	 -0.559177109	 1.241797060
C	 -2.509046697	 1.356312000	 0.750651399
H	 -2.938515899	 1.305329320	 -0.247512606
H	 -3.212083457	 1.890768995	 1.394260710
H	 -1.593045623	 1.938482256	 0.681924568
