14
0  1  0  1  0  1   7   7 -2.81405 -2.38542 -2.49840 -2.92703 -2.62427 -2.80499  1.85537  1.84083  1.82736 -2.53806 -6.89807 11.03765 -1.71929 -4.95834
N	 0.899975411	 0.470322378	 -0.000000000
H	 -0.000000000	 -0.000000000	 -0.000000000
H	 1.551531677	 -0.165471128	 0.440871011
C	 1.317289366	 0.703735305	 -1.380846800
H	 2.285752279	 1.200561943	 -1.390941251
H	 1.393409096	 -0.193060701	 -2.003864821
H	 0.608151532	 1.377430470	 -1.858431818
N	 -2.200370851	 1.024470985	 0.000000000
H	 -2.325258729	 1.140054573	 0.997670364
H	 -3.131529043	 0.916393309	 -0.380592755
C	 -1.580664998	 2.232817840	 -0.552305921
H	 -1.496040546	 2.125090162	 -1.631475907
H	 -2.119405077	 3.160997350	 -0.346442287
H	 -0.572819473	 2.323170263	 -0.153824565
