14
0  1  0  1  0  1   7   7 -2.82534 -2.66352 -2.67846 -2.84029 -2.75144 -2.80350 -0.87241 -0.88006 -0.88171 -2.81172 -2.29282  1.92367 -0.41951 -2.02305
N	 0.899975411	 0.470322378	 -0.000000000
H	 -0.000000000	 -0.000000000	 -0.000000000
H	 1.551531677	 -0.165471128	 0.440871011
C	 1.317289366	 0.703735305	 -1.380846800
H	 2.285752279	 1.200561943	 -1.390941251
H	 1.393409096	 -0.193060701	 -2.003864821
H	 0.608151532	 1.377430470	 -1.858431818
N	 -2.689342151	 1.252131203	 0.000000000
H	 -2.814230029	 1.367714791	 0.997670364
H	 -3.620500343	 1.144053527	 -0.380592755
C	 -2.069636298	 2.460478058	 -0.552305921
H	 -1.985011846	 2.352750380	 -1.631475907
H	 -2.608376377	 3.388657568	 -0.346442287
H	 -1.061790773	 2.550830481	 -0.153824565
