14
0  1  0  1  0  1   7   7 -3.10010 -2.89361 -2.91679 -3.12328 -3.00254 -3.07379 -0.67756 -0.68696 -0.69038 -3.05561 -2.93786  2.99158 -0.58833 -2.52101
N	 0.899975411	 0.470322378	 -0.000000000
H	 -0.000000000	 -0.000000000	 -0.000000000
H	 1.551531677	 -0.165471128	 0.440871011
C	 1.317289366	 0.703735305	 -1.380846800
H	 2.285752279	 1.200561943	 -1.390941251
H	 1.393409096	 -0.193060701	 -2.003864821
H	 0.608151532	 1.377430470	 -1.858431818
N	 -2.567099326	 1.195216149	 0.000000000
H	 -2.691987204	 1.310799737	 0.997670364
H	 -3.498257518	 1.087138473	 -0.380592755
C	 -1.947393473	 2.403563004	 -0.552305921
H	 -1.862769021	 2.295835326	 -1.631475907
H	 -2.486133552	 3.331742514	 -0.346442287
H	 -0.939547948	 2.493915427	 -0.153824565
