14
0  1  0  1  0  1   7   7 -2.88224 -2.70871 -2.71661 -2.89013 -2.79354 -2.85059 -0.78193 -0.78664 -0.78950 -2.82709 -2.44216  2.27888 -0.45164 -2.21218
N	 0.899975411	 0.470322378	 -0.000000000
H	 -0.000000000	 -0.000000000	 -0.000000000
H	 1.551531677	 -0.165471128	 0.440871011
C	 1.317289366	 0.703735305	 -1.380846800
H	 2.285752279	 1.200561943	 -1.390941251
H	 1.393409096	 -0.193060701	 -2.003864821
H	 0.608151532	 1.377430470	 -1.858431818
N	 -2.562838900	 0.000000000	 -1.195216149
H	 -3.205389152	 0.037654385	 -0.414182204
H	 -3.024112160	 -0.559177109	 -1.901003049
C	 -2.345136086	 1.356312000	 -1.707273315
H	 -1.695435302	 1.305329320	 -2.578286556
H	 -3.254036480	 1.890768995	 -1.994316353
H	 -1.827616368	 1.938482256	 -0.948356530
