14
0  1  0  1  0  1   7   7 -3.72273 -3.41718 -3.48636 -3.79191 -3.57472 -3.70453 -0.61975 -0.63256 -0.64262 -3.59335 -6.39854  7.92211 -1.67900 -3.43791
N	 0.899975411	 0.470322378	 -0.000000000
H	 -0.000000000	 -0.000000000	 -0.000000000
H	 1.551531677	 -0.165471128	 0.440871011
C	 1.317289366	 0.703735305	 -1.380846800
H	 2.285752279	 1.200561943	 -1.390941251
H	 1.393409096	 -0.193060701	 -2.003864821
H	 0.608151532	 1.377430470	 -1.858431818
N	 -1.967353724	 0.000000000	 1.081386039
H	 -1.612233612	 0.037654385	 2.028367853
H	 -2.809219739	 -0.559177109	 1.127966950
C	 -2.301956831	 1.356312000	 0.636821289
H	 -2.731426033	 1.305329320	 -0.361342716
H	 -3.004993591	 1.890768995	 1.280430600
H	 -1.385955757	 1.938482256	 0.568094458
