14
0  1  0  1  0  1   7   7  6.79761  7.87876  7.07274  5.99159  6.90708  6.36605 16.26290 16.23895 16.21108  6.93249 -27.66726 57.40925 -11.39423 -11.41527
N	 -0.638641380	 0.470916372	 0.044568477
H	 0.189954359	 -0.113937162	 -0.005773605
H	 -1.300468945	 0.081256802	 -0.613668480
C	 -1.198658820	 0.391398577	 1.391946599
H	 -2.092737771	 1.009244715	 1.453167495
H	 -1.462745512	 -0.615843668	 1.729452190
H	 -0.480275539	 0.798674912	 2.101087305
N	 1.758413395	 -0.356479155	 0.138237570
H	 2.054682065	 -0.081941420	 -0.789747673
H	 2.381963062	 -1.104169471	 0.413432433
C	 1.918643371	 0.778731438	 1.051912874
H	 1.648453067	 0.464035658	 2.057565983
H	 2.926053682	 1.200507997	 1.088884608
H	 1.226102988	 1.564506920	 0.759255628
