14
0  1  0  1  0  1   7   7 -3.24404 -3.06790 -3.08639 -3.26253 -3.14844 -3.21714 -1.45923 -1.46696 -1.47346 -3.21290 -3.49992  3.22097 -0.87797 -2.05598
N	 0.899975411	 0.470322378	 -0.000000000
H	 -0.000000000	 -0.000000000	 -0.000000000
H	 1.551531677	 -0.165471128	 0.440871011
C	 1.317289366	 0.703735305	 -1.380846800
H	 2.285752279	 1.200561943	 -1.390941251
H	 1.393409096	 -0.193060701	 -2.003864821
H	 0.608151532	 1.377430470	 -1.858431818
N	 -2.154483467	 -1.195216149	 0.000000000
H	 -2.317025730	 -1.245580430	 0.997670364
H	 -2.526464550	 -2.055661636	 -0.380592755
C	 -2.891089614	 -0.054361710	 -0.552305921
H	 -2.755482482	 -0.034938624	 -1.631475907
H	 -3.964286688	 -0.056834549	 -0.346442287
H	 -2.465414345	 0.863634329	 -0.153824565
