14
0  1  0  1  0  1   7   7 -3.23817 -2.90242 -2.96903 -3.30477 -3.08160 -3.21453  0.50900  0.49597  0.48670 -3.06980 -5.09888  7.16870 -1.19208 -3.94754
N	 0.899975411	 0.470322378	 -0.000000000
H	 -0.000000000	 -0.000000000	 -0.000000000
H	 1.551531677	 -0.165471128	 0.440871011
C	 1.317289366	 0.703735305	 -1.380846800
H	 2.285752279	 1.200561943	 -1.390941251
H	 1.393409096	 -0.193060701	 -2.003864821
H	 0.608151532	 1.377430470	 -1.858431818
N	 -2.322613676	 1.081386039	 0.000000000
H	 -2.447501554	 1.196969627	 0.997670364
H	 -3.253771868	 0.973308363	 -0.380592755
C	 -1.702907823	 2.289732894	 -0.552305921
H	 -1.618283371	 2.182005216	 -1.631475907
H	 -2.241647902	 3.217912404	 -0.346442287
H	 -0.695062298	 2.380085317	 -0.153824565
