14
0  1  0  1  0  1   7   7 -3.76655 -3.56681 -3.60607 -3.80581 -3.68261 -3.75635 -1.59174 -1.60171 -1.60768 -3.71671 -3.72225  3.19430 -0.82929 -2.35946
N	 -0.638641380	 0.470916372	 0.044568477
H	 0.189954359	 -0.113937162	 -0.005773605
H	 -1.300468945	 0.081256802	 -0.613668480
C	 -1.198658820	 0.391398577	 1.391946599
H	 -2.092737771	 1.009244715	 1.453167495
H	 -1.462745512	 -0.615843668	 1.729452190
H	 -0.480275539	 0.798674912	 2.101087305
N	 2.654675702	 -0.495074579	 0.220529670
H	 2.950944372	 -0.220536844	 -0.707455573
H	 3.278225369	 -1.242764895	 0.495724533
C	 2.814905678	 0.640136014	 1.134204974
H	 2.544715374	 0.325440234	 2.139858083
H	 3.822315989	 1.061912573	 1.171176708
H	 2.122365295	 1.425911496	 0.841547728
