14
0  1  0  1  0  1   7   7 -1.45634 -1.35305 -1.34200 -1.44529 -1.39035 -1.42205 -0.18322 -0.18463 -0.18446 -1.37716 -1.05589  1.17963 -0.18947 -1.31143
N	 -3.176577599	 0.470322378	 0.000000000
H	 -2.276602188	 -0.000000000	 0.000000000
H	 -3.828133865	 -0.165471128	 -0.440871011
C	 -3.593891554	 0.703735305	 1.380846800
H	 -4.562354466	 1.200561943	 1.390941251
H	 -3.670011283	 -0.193060701	 2.003864821
H	 -2.884753720	 1.377430470	 1.858431818
N	 1.193421921	 0.000000000	 0.000000000
H	 1.318309800	 0.115583589	 -0.997670364
H	 2.124580114	 -0.108077676	 0.380592755
C	 0.573716069	 1.208346856	 0.552305921
H	 0.489091616	 1.100619177	 1.631475907
H	 1.112456148	 2.136526365	 0.346442287
H	 -0.434129456	 1.298699279	 0.153824565
