14
0  1  0  1  0  1   7   7  3.43896  4.21327  3.67217  2.89786  3.54550  3.16727  9.99819  9.98110  9.97206  3.32036 -21.10837 42.00388 -9.21011 -8.36504
N	 0.899975411	 0.470322378	 -0.000000000
H	 -0.000000000	 -0.000000000	 -0.000000000
H	 1.551531677	 -0.165471128	 0.440871011
C	 1.317289366	 0.703735305	 -1.380846800
H	 2.285752279	 1.200561943	 -1.390941251
H	 1.393409096	 -0.193060701	 -2.003864821
H	 0.608151532	 1.377430470	 -1.858431818
N	 -1.436322311	 -0.796810766	 0.000000000
H	 -1.598864574	 -0.847175047	 0.997670364
H	 -1.808303394	 -1.657256253	 -0.380592755
C	 -2.172928458	 0.344043673	 -0.552305921
H	 -2.037321326	 0.363466759	 -1.631475907
H	 -3.246125532	 0.341570834	 -0.346442287
H	 -1.747253189	 1.262039712	 -0.153824565
