14
0  1  0  1  0  1   7   7  0.48608  1.19352  0.89044  0.18300  0.73724  0.40720  7.75875  7.74146  7.71865  1.06095 -13.21947 25.80400 -3.64703 -7.87654
N	 0.899975411	 0.470322378	 -0.000000000
H	 -0.000000000	 -0.000000000	 -0.000000000
H	 1.551531677	 -0.165471128	 0.440871011
C	 1.317289366	 0.703735305	 -1.380846800
H	 2.285752279	 1.200561943	 -1.390941251
H	 1.393409096	 -0.193060701	 -2.003864821
H	 0.608151532	 1.377430470	 -1.858431818
N	 -1.955885201	 0.910640875	 0.000000000
H	 -2.080773079	 1.026224463	 0.997670364
H	 -2.887043393	 0.802563199	 -0.380592755
C	 -1.336179348	 2.118987730	 -0.552305921
H	 -1.251554896	 2.011260052	 -1.631475907
H	 -1.874919427	 3.047167240	 -0.346442287
H	 -0.328333823	 2.209340153	 -0.153824565
