14
0  1  0  1  0  1   7   7 -3.00120 -2.85824 -2.86760 -3.01056 -2.92226 -2.97518 -1.51949 -1.52549 -1.52992 -2.99401 -2.85655  2.21395 -0.65001 -1.70140
N	 0.899975411	 0.470322378	 -0.000000000
H	 -0.000000000	 -0.000000000	 -0.000000000
H	 1.551531677	 -0.165471128	 0.440871011
C	 1.317289366	 0.703735305	 -1.380846800
H	 2.285752279	 1.200561943	 -1.390941251
H	 1.393409096	 -0.193060701	 -2.003864821
H	 0.608151532	 1.377430470	 -1.858431818
N	 -2.257077918	 -1.252131203	 0.000000000
H	 -2.419620181	 -1.302495484	 0.997670364
H	 -2.629059001	 -2.112576690	 -0.380592755
C	 -2.993684065	 -0.111276764	 -0.552305921
H	 -2.858076933	 -0.091853678	 -1.631475907
H	 -4.066881139	 -0.113749603	 -0.346442287
H	 -2.568008796	 0.806719275	 -0.153824565
