14
0  1  0  1  0  1   7   7 -1.09513 -0.40171 -0.80722 -1.50063 -0.94671 -1.27262  5.46619  5.44574  5.43230 -0.62119 -15.78610 28.41143 -5.68533 -7.56119
N	 -0.638641380	 0.470916372	 0.044568477
H	 0.189954359	 -0.113937162	 -0.005773605
H	 -1.300468945	 0.081256802	 -0.613668480
C	 -1.198658820	 0.391398577	 1.391946599
H	 -2.092737771	 1.009244715	 1.453167495
H	 -1.462745512	 -0.615843668	 1.729452190
H	 -0.480275539	 0.798674912	 2.101087305
N	 1.982478972	 -0.391128011	 0.158810595
H	 2.278747642	 -0.116590276	 -0.769174648
H	 2.606028639	 -1.138818327	 0.434005458
C	 2.142708948	 0.744082582	 1.072485899
H	 1.872518644	 0.429386802	 2.078139008
H	 3.150119259	 1.165859141	 1.109457633
H	 1.450168565	 1.529858064	 0.779828653
