14
0  1  0  1  0  1   7   7 -2.96389 -2.80980 -2.80769 -2.96178 -2.86192 -2.92262 -1.26842 -1.27651 -1.28355 -2.99825 -3.69697  3.55323 -0.95483 -1.89968
N	 -3.176577599	 0.470322378	 0.000000000
H	 -2.276602188	 -0.000000000	 0.000000000
H	 -3.828133865	 -0.165471128	 -0.440871011
C	 -3.593891554	 0.703735305	 1.380846800
H	 -4.562354466	 1.200561943	 1.390941251
H	 -3.670011283	 -0.193060701	 2.003864821
H	 -2.884753720	 1.377430470	 1.858431818
N	 0.198471294	 0.000000000	 0.000000000
H	 0.361013558	 -0.050364281	 -0.997670364
H	 0.570452378	 -0.860445488	 0.380592755
C	 0.935077442	 1.140854439	 0.552305921
H	 0.799470309	 1.160277525	 1.631475907
H	 2.008274516	 1.138381599	 0.346442287
H	 0.509402173	 2.058850478	 0.153824565
