14
0  1  0  1  0  1   7   7 -3.10053 -2.90807 -2.91782 -3.11028 -2.97871 -3.05890 -1.05508 -1.06464 -1.07441 -3.11107 -4.64736  5.13569 -1.29122 -2.30817
N	 -3.176577599	 0.470322378	 0.000000000
H	 -2.276602188	 -0.000000000	 0.000000000
H	 -3.828133865	 -0.165471128	 -0.440871011
C	 -3.593891554	 0.703735305	 1.380846800
H	 -4.562354466	 1.200561943	 1.390941251
H	 -3.670011283	 -0.193060701	 2.003864821
H	 -2.884753720	 1.377430470	 1.858431818
N	 0.080610652	 0.000000000	 0.000000000
H	 0.243152916	 -0.050364281	 -0.997670364
H	 0.452591736	 -0.860445488	 0.380592755
C	 0.817216800	 1.140854439	 0.552305921
H	 0.681609667	 1.160277525	 1.631475907
H	 1.890413874	 1.138381599	 0.346442287
H	 0.391541531	 2.058850478	 0.153824565
