14
0  1  0  1  0  1   7   7 -3.06814 -2.84854 -2.86355 -3.08315 -2.95171 -3.02976 -0.46390 -0.47020 -0.47510 -2.96709 -3.11334  3.53729 -0.63995 -2.75110
N	 0.899975411	 0.470322378	 -0.000000000
H	 -0.000000000	 -0.000000000	 -0.000000000
H	 1.551531677	 -0.165471128	 0.440871011
C	 1.317289366	 0.703735305	 -1.380846800
H	 2.285752279	 1.200561943	 -1.390941251
H	 1.393409096	 -0.193060701	 -2.003864821
H	 0.608151532	 1.377430470	 -1.858431818
N	 -2.440798952	 0.000000000	 -1.138301094
H	 -3.083349204	 0.037654385	 -0.357267149
H	 -2.902072212	 -0.559177109	 -1.844087994
C	 -2.223096138	 1.356312000	 -1.650358260
H	 -1.573395354	 1.305329320	 -2.521371501
H	 -3.131996532	 1.890768995	 -1.937401298
H	 -1.705576420	 1.938482256	 -0.891441475
