14
0  1  0  1  0  1   7   7 -3.32400 -3.02944 -3.10699 -3.40154 -3.20384 -3.32301 -0.24814 -0.26008 -0.27163 -3.07272 -5.31582  7.09459 -1.46334 -3.38815
N	 -3.176577599	 0.470322378	 0.000000000
H	 -2.276602188	 -0.000000000	 0.000000000
H	 -3.828133865	 -0.165471128	 -0.440871011
C	 -3.593891554	 0.703735305	 1.380846800
H	 -4.562354466	 1.200561943	 1.390941251
H	 -3.670011283	 -0.193060701	 2.003864821
H	 -2.884753720	 1.377430470	 1.858431818
N	 -0.068947472	 0.000000000	 0.000000000
H	 -0.424067583	 0.037654385	 -0.946981815
H	 0.772918544	 -0.559177109	 -0.046580912
C	 0.265655636	 1.356312000	 0.444564750
H	 0.695124837	 1.305329320	 1.442728755
H	 0.968692396	 1.890768995	 -0.199044562
H	 -0.650345439	 1.938482256	 0.513291581
