14
0  1  0  1  0  1   7   7 -3.75746 -3.30170 -3.49236 -3.94812 -3.60933 -3.81143  0.78324  0.76618  0.75140 -3.41947 -9.29580 13.86408 -2.91023 -5.07752
N	 -0.638641380	 0.470916372	 0.044568477
H	 0.189954359	 -0.113937162	 -0.005773605
H	 -1.300468945	 0.081256802	 -0.613668480
C	 -1.198658820	 0.391398577	 1.391946599
H	 -2.092737771	 1.009244715	 1.453167495
H	 -1.462745512	 -0.615843668	 1.729452190
H	 -0.480275539	 0.798674912	 2.101087305
N	 2.206544548	 -0.425776867	 0.179383620
H	 2.502813218	 -0.151239132	 -0.748601623
H	 2.830094215	 -1.173467183	 0.454578483
C	 2.366774524	 0.709433726	 1.093058924
H	 2.096584220	 0.394737946	 2.098712033
H	 3.374184835	 1.131210285	 1.130030658
H	 1.674234141	 1.495209208	 0.800401678
