14
0  1  0  1  0  1   7   7 -3.69867 -3.45099 -3.49051 -3.73819 -3.57037 -3.67066 -1.12911 -1.14060 -1.14835 -3.62964 -5.03797  5.44990 -1.22066 -2.82092
N	 0.899975411	 0.470322378	 -0.000000000
H	 -0.000000000	 -0.000000000	 -0.000000000
H	 1.551531677	 -0.165471128	 0.440871011
C	 1.317289366	 0.703735305	 -1.380846800
H	 2.285752279	 1.200561943	 -1.390941251
H	 1.393409096	 -0.193060701	 -2.003864821
H	 0.608151532	 1.377430470	 -1.858431818
N	 -2.070898657	 0.000000000	 1.138301094
H	 -1.715778545	 0.037654385	 2.085282908
H	 -2.912764672	 -0.559177109	 1.184882005
C	 -2.405501764	 1.356312000	 0.693736344
H	 -2.834970966	 1.305329320	 -0.304427661
H	 -3.108538524	 1.890768995	 1.337345655
H	 -1.489500690	 1.938482256	 0.625009513
