14
0  1  0  1  0  1   7   7 -0.10858  0.53983  0.26975 -0.37866  0.13369 -0.16845  6.59769  6.57957  6.56550  0.57033 -11.54315 23.43808 -3.98807 -7.33653
N	 -3.176577599	 0.470322378	 0.000000000
H	 -2.276602188	 -0.000000000	 0.000000000
H	 -3.828133865	 -0.165471128	 -0.440871011
C	 -3.593891554	 0.703735305	 1.380846800
H	 -4.562354466	 1.200561943	 1.390941251
H	 -3.670011283	 -0.193060701	 2.003864821
H	 -2.884753720	 1.377430470	 1.858431818
N	 -0.280413535	 0.000000000	 0.000000000
H	 0.362136718	 0.037654385	 -0.781033945
H	 0.180859726	 -0.559177109	 0.705786900
C	 -0.498116348	 1.356312000	 0.512057167
H	 -1.147817133	 1.305329320	 1.383070407
H	 0.410784046	 1.890768995	 0.799100204
H	 -1.015636067	 1.938482256	 -0.246859618
