14
0  1  0  1  0  1   7   7 -1.27660 -1.02329 -1.04761 -1.30093 -1.13359 -1.23339  1.55476  1.54553  1.53827 -0.98128 -2.92932  5.66049 -0.79421 -2.91825
N	 -3.176577599	 0.470322378	 0.000000000
H	 -2.276602188	 -0.000000000	 0.000000000
H	 -3.828133865	 -0.165471128	 -0.440871011
C	 -3.593891554	 0.703735305	 1.380846800
H	 -4.562354466	 1.200561943	 1.390941251
H	 -3.670011283	 -0.193060701	 2.003864821
H	 -2.884753720	 1.377430470	 1.858431818
N	 0.697704191	 0.000000000	 0.000000000
H	 0.822592070	 0.115583589	 -0.997670364
H	 1.628862384	 -0.108077676	 0.380592755
C	 0.077998339	 1.208346856	 0.552305921
H	 -0.006626114	 1.100619177	 1.631475907
H	 0.616738418	 2.136526365	 0.346442287
H	 -0.929847186	 1.298699279	 0.153824565
