14
0  1  0  1  0  1   7   7 -3.01340 -2.64833 -2.77035 -3.13542 -2.87754 -3.03250  0.71423  0.70033  0.68641 -2.66404 -6.83586 10.38098 -2.06828 -4.14089
N	 -3.176577599	 0.470322378	 0.000000000
H	 -2.276602188	 -0.000000000	 0.000000000
H	 -3.828133865	 -0.165471128	 -0.440871011
C	 -3.593891554	 0.703735305	 1.380846800
H	 -4.562354466	 1.200561943	 1.390941251
H	 -3.670011283	 -0.193060701	 2.003864821
H	 -2.884753720	 1.377430470	 1.858431818
N	 -0.185139826	 0.000000000	 0.000000000
H	 -0.540259937	 0.037654385	 -0.946981815
H	 0.656726190	 -0.559177109	 -0.046580912
C	 0.149463282	 1.356312000	 0.444564750
H	 0.578932483	 1.305329320	 1.442728755
H	 0.852500042	 1.890768995	 -0.199044562
H	 -0.766537793	 1.938482256	 0.513291581
