14
0  1  0  1  0  1   7   7 -3.35440 -3.11675 -3.16571 -3.40336 -3.25231 -3.34332 -0.81565 -0.82572 -0.83445 -3.18493 -4.19744  4.83571 -1.04404 -2.77915
N	 -3.176577599	 0.470322378	 0.000000000
H	 -2.276602188	 -0.000000000	 0.000000000
H	 -3.828133865	 -0.165471128	 -0.440871011
C	 -3.593891554	 0.703735305	 1.380846800
H	 -4.562354466	 1.200561943	 1.390941251
H	 -3.670011283	 -0.193060701	 2.003864821
H	 -2.884753720	 1.377430470	 1.858431818
N	 0.047244881	 0.000000000	 0.000000000
H	 -0.307875230	 0.037654385	 -0.946981815
H	 0.889110897	 -0.559177109	 -0.046580912
C	 0.381847989	 1.356312000	 0.444564750
H	 0.811317190	 1.305329320	 1.442728755
H	 1.084884749	 1.890768995	 -0.199044562
H	 -0.534153086	 1.938482256	 0.513291581
