19
0  1  0  1  0  1   7  12 -4.31884 -3.86724 -4.04356 -4.49515 -4.15242 -4.35793  1.16873  1.16480  1.14733 -3.96321 -7.18216 11.58584 -1.92469 -6.44220
N	 0.803463650	 0.618993928	 -0.020680770
H	 0.000000000	 0.000000000	 0.000000000
H	 1.612673434	 0.030739041	 -0.169615517
C	 0.656100137	 1.533481860	 -1.151840245
H	 1.517625550	 2.197267700	 -1.198307407
H	 0.546931597	 1.051368407	 -2.127897830
H	 -0.222888692	 2.156795008	 -0.994324901
C	 -2.616913938	 1.469902938	 0.768026178
H	 -3.186483574	 0.708153426	 1.295296276
H	 -3.103783836	 2.434078464	 0.894611667
H	 -1.619524736	 1.501015183	 1.203792833
C	 -2.482715258	 1.055262686	 -0.675010617
O	 -1.951097038	 -0.000000000	 -1.008571528
N	 -2.961596555	 1.934911752	 -1.591983696
H	 -3.459173874	 2.744646422	 -1.271867374
C	 -2.911244758	 1.635662296	 -3.006730234
H	 -1.955791378	 1.171654834	 -3.233118184
H	 -3.700588248	 0.946451088	 -3.305721857
H	 -3.008753986	 2.558089190	 -3.571718738
