19
0  1  0  1  0  1   7  12 -1.79911 -1.25604 -1.42832 -1.97139 -1.51441 -1.79330  2.92511  2.91523  2.88039 -1.28433 -12.47137 22.31737 -4.71618 -6.41416
N	 -3.044733712	 0.618993928	 0.020680770
H	 -2.241270063	 0.000000000	 -0.000000000
H	 -3.853943497	 0.030739041	 0.169615517
C	 -2.897370200	 1.533481860	 1.151840245
H	 -3.758895612	 2.197267700	 1.198307407
H	 -2.788201659	 1.051368407	 2.127897830
H	 -2.018381371	 2.156795008	 0.994324901
C	 -0.001482665	 1.428815537	 -1.871487196
H	 -0.183494843	 0.654307746	 -2.612901313
H	 0.790944397	 2.084641559	 -2.224548394
H	 -0.922660940	 1.996583388	 -1.750177588
C	 0.315401461	 0.767077080	 -0.554681333
O	 -0.466507436	 0.000000000	 0.000000000
N	 1.511447957	 1.092270563	 0.000000000
H	 2.150883847	 1.658093139	 -0.526017527
C	 1.936662601	 0.501229266	 1.250382340
H	 1.086097693	 0.456513478	 1.924166746
H	 2.313531786	 -0.512188812	 1.114644936
H	 2.715655168	 1.116604529	 1.690922123
