19
0  1  0  1  0  1   7  12 -4.38640 -4.08359 -4.17493 -4.47775 -4.26196 -4.38896 -0.54194 -0.54573 -0.55107 -4.30770 -4.81587  6.15807 -1.15056 -4.49934
N	 0.803463650	 0.618993928	 -0.020680770
H	 0.000000000	 0.000000000	 0.000000000
H	 1.612673434	 0.030739041	 -0.169615517
C	 0.656100137	 1.533481860	 -1.151840245
H	 1.517625550	 2.197267700	 -1.198307407
H	 0.546931597	 1.051368407	 -2.127897830
H	 -0.222888692	 2.156795008	 -0.994324901
C	 -1.591551467	 2.237766065	 1.871487196
H	 -2.171288800	 1.692884999	 2.612901313
H	 -1.419803003	 3.251941042	 2.224548394
H	 -0.639260946	 1.723886202	 1.750177588
C	 -2.323075845	 2.181326539	 0.554681333
O	 -2.596429634	 1.120635031	 -0.000000000
N	 -2.639473275	 3.379729931	 0.000000000
H	 -2.469174495	 4.216408944	 0.526017527
C	 -3.363937376	 3.452455966	 -1.250382340
H	 -2.977379930	 2.693487255	 -1.924166746
H	 -4.430017768	 3.272125215	 -1.114644936
H	 -3.220503049	 4.434770950	 -1.690922123
