19
0  1  0  1  0  1   7  12 -4.42688 -4.03329 -4.04005 -4.43364 -4.12718 -4.31219 -0.83053 -0.83916 -0.85775 -4.38178 -8.11325 10.76978 -2.38674 -4.65157
N	 0.803463650	 0.618993928	 -0.020680770
H	 0.000000000	 0.000000000	 0.000000000
H	 1.612673434	 0.030739041	 -0.169615517
C	 0.656100137	 1.533481860	 -1.151840245
H	 1.517625550	 2.197267700	 -1.198307407
H	 0.546931597	 1.051368407	 -2.127897830
H	 -0.222888692	 2.156795008	 -0.994324901
C	 -0.937506571	 1.469902938	 2.529516482
H	 -0.765662090	 0.708153426	 3.286413305
H	 -1.071315271	 2.434078464	 3.014450927
H	 -0.061426977	 1.501015183	 1.883635423
C	 -2.120113754	 1.055262686	 1.691778619
O	 -2.143176867	 -0.000000000	 1.064603279
N	 -3.153676384	 1.934911752	 1.648015447
H	 -3.125236177	 2.744646422	 2.238988207
C	 -4.353706927	 1.635662296	 0.897036243
H	 -4.072037954	 1.171654834	 -0.043604631
H	 -5.007313013	 0.946451088	 1.431131947
H	 -4.891755938	 2.558089190	 0.698987460
