19
0  1  0  1  0  1   7  12 -2.67607 -2.28824 -2.36117 -2.74900 -2.45956 -2.63144  1.98983  1.98164  1.97085 -2.45550 -5.49199  9.76469 -1.36131 -5.36688
N	 -3.044733712	 0.618993928	 0.020680770
H	 -2.241270063	 0.000000000	 -0.000000000
H	 -3.853943497	 0.030739041	 0.169615517
C	 -2.897370200	 1.533481860	 1.151840245
H	 -3.758895612	 2.197267700	 1.198307407
H	 -2.788201659	 1.051368407	 2.127897830
H	 -2.018381371	 2.156795008	 0.994324901
C	 -0.536072212	 1.117131034	 -1.871487196
H	 0.043665122	 0.572249968	 -2.612901313
H	 -0.707820676	 2.131306011	 -2.224548394
H	 -1.488362732	 0.603251171	 -1.750177588
C	 0.195452166	 1.060691508	 -0.554681333
O	 0.468805955	 0.000000000	 0.000000000
N	 0.511849596	 2.259094899	 0.000000000
H	 0.341550816	 3.095773912	 -0.526017527
C	 1.236313696	 2.331820935	 1.250382340
H	 0.849756250	 1.572852223	 1.924166746
H	 2.302394089	 2.151490184	 1.114644936
H	 1.092879369	 3.314135919	 1.690922123
