19
0  1  0  1  0  1   7  12 -2.96069 -2.72287 -2.73536 -2.97318 -2.81161 -2.90665  0.10659  0.10048  0.09661 -2.83891 -3.03539  4.38065 -0.68287 -3.50130
N	 -3.044733712	 0.618993928	 0.020680770
H	 -2.241270063	 0.000000000	 -0.000000000
H	 -3.853943497	 0.030739041	 0.169615517
C	 -2.897370200	 1.533481860	 1.151840245
H	 -3.758895612	 2.197267700	 1.198307407
H	 -2.788201659	 1.051368407	 2.127897830
H	 -2.018381371	 2.156795008	 0.994324901
C	 -0.234952655	 1.117131034	 -1.871487196
H	 0.344784679	 0.572249968	 -2.612901313
H	 -0.406701119	 2.131306011	 -2.224548394
H	 -1.187243175	 0.603251171	 -1.750177588
C	 0.496571723	 1.060691508	 -0.554681333
O	 0.769925512	 0.000000000	 0.000000000
N	 0.812969153	 2.259094899	 0.000000000
H	 0.642670373	 3.095773912	 -0.526017527
C	 1.537433253	 2.331820935	 1.250382340
H	 1.150875807	 1.572852223	 1.924166746
H	 2.603513646	 2.151490184	 1.114644936
H	 1.393998926	 3.314135919	 1.690922123
