19
0  1  0  1  0  1   7  12 -4.18439 -3.94348 -4.00647 -4.24738 -4.08312 -4.17938 -1.02191 -1.02556 -1.02864 -4.13691 -3.77531  4.17502 -0.84552 -3.69109
N	 0.803463650	 0.618993928	 -0.020680770
H	 0.000000000	 0.000000000	 0.000000000
H	 1.612673434	 0.030739041	 -0.169615517
C	 0.656100137	 1.533481860	 -1.151840245
H	 1.517625550	 2.197267700	 -1.198307407
H	 0.546931597	 1.051368407	 -2.127897830
H	 -0.222888692	 2.156795008	 -0.994324901
C	 -1.721372949	 2.293797817	 1.871487196
H	 -2.301110282	 1.748916751	 2.612901313
H	 -1.549624485	 3.307972794	 2.224548394
H	 -0.769082428	 1.779917954	 1.750177588
C	 -2.452897327	 2.237358291	 0.554681333
O	 -2.726251116	 1.176666783	 -0.000000000
N	 -2.769294757	 3.435761683	 0.000000000
H	 -2.598995977	 4.272440696	 0.526017527
C	 -3.493758858	 3.508487718	 -1.250382340
H	 -3.107201412	 2.749519007	 -1.924166746
H	 -4.559839250	 3.328156967	 -1.114644936
H	 -3.350324531	 4.490802702	 -1.690922123
