19
0  1  0  1  0  1   7  12  6.31680  7.40800  6.73211  5.64091  6.57102  6.01216 16.87379 16.85429 16.80417  7.68557 -23.20022 53.44523 -9.65104 -12.90840
N	 -3.044733712	 0.618993928	 0.020680770
H	 -2.241270063	 0.000000000	 -0.000000000
H	 -3.853943497	 0.030739041	 0.169615517
C	 -2.897370200	 1.533481860	 1.151840245
H	 -3.758895612	 2.197267700	 1.198307407
H	 -2.788201659	 1.051368407	 2.127897830
H	 -2.018381371	 2.156795008	 0.994324901
C	 -0.014487548	 1.469902938	 -1.776597706
H	 0.555082088	 0.708153426	 -2.303867804
H	 0.472382350	 2.434078464	 -1.903183195
H	 -1.011876750	 1.501015183	 -2.212364361
C	 -0.148686228	 1.055262686	 -0.333560911
O	 -0.680304448	 0.000000000	 0.000000000
N	 0.330195069	 1.934911752	 0.583412168
H	 0.827772387	 2.744646422	 0.263295845
C	 0.279843271	 1.635662296	 1.998158705
H	 -0.675610109	 1.171654834	 2.224546656
H	 1.069186762	 0.946451088	 2.297150329
H	 0.377352500	 2.558089190	 2.563147209
