19
0  1  0  1  0  1   7  12 -3.94967 -3.76238 -3.80652 -3.99382 -3.87066 -3.94285 -1.20415 -1.20349 -1.20584 -3.88586 -2.79772  2.71629 -0.61179 -3.19264
N	 0.803463650	 0.618993928	 -0.020680770
H	 0.000000000	 0.000000000	 0.000000000
H	 1.612673434	 0.030739041	 -0.169615517
C	 0.656100137	 1.533481860	 -1.151840245
H	 1.517625550	 2.197267700	 -1.198307407
H	 0.546931597	 1.051368407	 -2.127897830
H	 -0.222888692	 2.156795008	 -0.994324901
C	 -3.050491058	 1.469902938	 0.543899172
H	 -3.620060694	 0.708153426	 1.071169270
H	 -3.537360956	 2.434078464	 0.670484661
H	 -2.053101856	 1.501015183	 0.979665827
C	 -2.916292378	 1.055262686	 -0.899137623
O	 -2.384674158	 -0.000000000	 -1.232698534
N	 -3.395173675	 1.934911752	 -1.816110702
H	 -3.892750994	 2.744646422	 -1.495994380
C	 -3.344821878	 1.635662296	 -3.230857240
H	 -2.389368498	 1.171654834	 -3.457245190
H	 -4.134165368	 0.946451088	 -3.529848863
H	 -3.442331106	 2.558089190	 -3.795845744
