19
0  1  0  1  0  1   7  12 -4.08353 -3.87248 -3.83481 -4.04586 -3.89891 -3.98615 -2.04928 -2.05491 -2.06032 -4.09447 -4.20927  3.78491 -1.01514 -2.65498
N	 0.803463650	 0.618993928	 -0.020680770
H	 0.000000000	 0.000000000	 0.000000000
H	 1.612673434	 0.030739041	 -0.169615517
C	 0.656100137	 1.533481860	 -1.151840245
H	 1.517625550	 2.197267700	 -1.198307407
H	 0.546931597	 1.051368407	 -2.127897830
H	 -0.222888692	 2.156795008	 -0.994324901
C	 -1.275902919	 1.469902938	 2.697611737
H	 -1.104058438	 0.708153426	 3.454508560
H	 -1.409711619	 2.434078464	 3.182546182
H	 -0.399823325	 1.501015183	 2.051730678
C	 -2.458510102	 1.055262686	 1.859873874
O	 -2.481573215	 -0.000000000	 1.232698534
N	 -3.492072732	 1.934911752	 1.816110702
H	 -3.463632524	 2.744646422	 2.407083462
C	 -4.692103275	 1.635662296	 1.065131498
H	 -4.410434301	 1.171654834	 0.124490624
H	 -5.345709361	 0.946451088	 1.599227202
H	 -5.230152286	 2.558089190	 0.867082715
