19
0  1  0  1  0  1   7  12 -4.64963 -4.30214 -4.32042 -4.66792 -4.39674 -4.56412 -1.54409 -1.55035 -1.57549 -4.33825 -6.70415  8.75115 -2.27309 -4.11215
N	 0.803463650	 0.618993928	 -0.020680770
H	 0.000000000	 0.000000000	 0.000000000
H	 1.612673434	 0.030739041	 -0.169615517
C	 0.656100137	 1.533481860	 -1.151840245
H	 1.517625550	 2.197267700	 -1.198307407
H	 0.546931597	 1.051368407	 -2.127897830
H	 -0.222888692	 2.156795008	 -0.994324901
C	 -2.243964797	 0.364212258	 1.871487196
H	 -2.061952618	 -0.410295533	 2.612901313
H	 -3.036391859	 1.020038279	 2.224548394
H	 -1.322786521	 0.931980109	 1.750177588
C	 -2.560848923	 -0.297526200	 0.554681333
O	 -1.778940026	 -1.064603279	 -0.000000000
N	 -3.756895419	 0.027667284	 0.000000000
H	 -4.396331309	 0.593489860	 0.526017527
C	 -4.182110064	 -0.563374014	 -1.250382340
H	 -3.331545156	 -0.608089801	 -1.924166746
H	 -4.558979248	 -1.576792092	 -1.114644936
H	 -4.961102631	 0.052001249	 -1.690922123
