19
0  1  0  1  0  1   7  12  5.73316  6.91423  6.22616  5.04508  6.07617  5.45837 16.01167 15.99177 15.94031  6.64601 -28.39419 59.27858 -10.90591 -13.33247
N	 0.094795588	 0.767130129	 0.009998540
H	 0.795381562	 0.514168325	 -0.678713760
H	 -0.796748326	 0.479672473	 -0.371529169
C	 0.358989457	 0.018467975	 1.237692524
H	 -0.392645655	 0.267027843	 1.984860193
H	 0.376480296	 -1.069534810	 1.123747053
H	 1.324961549	 0.321266803	 1.639143036
C	 2.293878677	 2.687470330	 -0.154397997
H	 2.418497147	 3.098647061	 -1.153442329
H	 2.800450053	 3.328462882	 0.563386523
H	 1.227466921	 2.660940803	 0.064023432
C	 2.805870368	 1.269672649	 -0.152103965
O	 2.345890483	 0.403936230	 -0.891278578
N	 3.792353337	 0.996640303	 0.740226743
H	 4.192114358	 1.751573078	 1.265579497
C	 4.380798676	 -0.322950242	 0.817726310
H	 3.592622064	 -1.064280389	 0.724705714
H	 5.102058458	 -0.494945614	 0.019181918
H	 4.875452189	 -0.438818431	 1.777665838
