19
0  1  0  1  0  1   7  12 -1.86527 -1.73296 -1.68538 -1.81769 -1.74347 -1.78686 -0.29715 -0.30103 -0.30217 -1.77350 -1.36424  1.64658 -0.29860 -1.75723
N	 -3.044733712	 0.618993928	 0.020680770
H	 -2.241270063	 0.000000000	 -0.000000000
H	 -3.853943497	 0.030739041	 0.169615517
C	 -2.897370200	 1.533481860	 1.151840245
H	 -3.758895612	 2.197267700	 1.198307407
H	 -2.788201659	 1.051368407	 2.127897830
H	 -2.018381371	 2.156795008	 0.994324901
C	 0.283839540	 1.469902938	 -1.464913203
H	 0.111995059	 0.708153426	 -2.221810026
H	 0.417648240	 2.434078464	 -1.949847647
H	 -0.592240054	 1.501015183	 -0.819032144
C	 1.466446723	 1.055262686	 -0.627175339
O	 1.489509836	 0.000000000	 0.000000000
N	 2.500009353	 1.934911752	 -0.583412168
H	 2.471569144	 2.744646422	 -1.174384928
C	 3.700039895	 1.635662296	 0.167567036
H	 3.418370921	 1.171654834	 1.108207911
H	 4.353645982	 0.946451088	 -0.366528667
H	 4.238088907	 2.558089190	 0.365615819
