19
0  1  0  1  0  1   7  12 -4.27405 -3.98993 -4.00355 -4.28767 -4.06495 -4.20214 -1.52192 -1.52488 -1.54486 -4.11688 -5.92104  7.32668 -1.84663 -3.67589
N	 -3.044733712	 0.618993928	 0.020680770
H	 -2.241270063	 0.000000000	 -0.000000000
H	 -3.853943497	 0.030739041	 0.169615517
C	 -2.897370200	 1.533481860	 1.151840245
H	 -3.758895612	 2.197267700	 1.198307407
H	 -2.788201659	 1.051368407	 2.127897830
H	 -2.018381371	 2.156795008	 0.994324901
C	 0.331285328	 1.428815537	 -1.871487196
H	 0.149273150	 0.654307746	 -2.612901313
H	 1.123712390	 2.084641559	 -2.224548394
H	 -0.589892947	 1.996583388	 -1.750177588
C	 0.648169454	 0.767077080	 -0.554681333
O	 -0.133739443	 0.000000000	 0.000000000
N	 1.844215950	 1.092270563	 0.000000000
H	 2.483651840	 1.658093139	 -0.526017527
C	 2.269430594	 0.501229266	 1.250382340
H	 1.418865686	 0.456513478	 1.924166746
H	 2.646299779	 -0.512188812	 1.114644936
H	 3.048423161	 1.116604529	 1.690922123
