19
0  1  0  1  0  1   7  12 -5.26044 -4.96669 -5.00570 -5.29946 -5.08397 -5.21372 -2.06206 -2.06584 -2.07808 -5.12493 -5.36027  5.58730 -1.38011 -3.97185
N	 -0.569708236	 0.814372455	 0.101097747
H	 0.130877738	 0.561410651	 -0.587614553
H	 -1.461252150	 0.526914799	 -0.280429961
C	 -0.305514367	 0.065710301	 1.328791732
H	 -1.057149479	 0.314270169	 2.075959401
H	 -0.288023528	 -1.022292484	 1.214846260
H	 0.660457725	 0.368509129	 1.730242243
C	 2.404629314	 2.679596609	 -0.169581198
H	 2.529247784	 3.090773340	 -1.168625530
H	 2.911200690	 3.320589161	 0.548203322
H	 1.338217558	 2.653067082	 0.048840231
C	 2.916621005	 1.261798928	 -0.167287166
O	 2.456641120	 0.396062509	 -0.906461779
N	 3.903103974	 0.988766582	 0.725043542
H	 4.302864995	 1.743699357	 1.250396296
C	 4.491549313	 -0.330823963	 0.802543109
H	 3.703372701	 -1.072154110	 0.709522513
H	 5.212809095	 -0.502819335	 0.003998717
H	 4.986202826	 -0.446692152	 1.762482637
