19
0  1  0  1  0  1   7  12 -0.53737  0.09915 -0.11735 -0.75388 -0.24162 -0.54778  6.53628  6.52513  6.50139 -0.16130 -10.31341 21.07290 -2.67452 -8.24628
N	 -3.044733712	 0.618993928	 0.020680770
H	 -2.241270063	 0.000000000	 -0.000000000
H	 -3.853943497	 0.030739041	 0.169615517
C	 -2.897370200	 1.533481860	 1.151840245
H	 -3.758895612	 2.197267700	 1.198307407
H	 -2.788201659	 1.051368407	 2.127897830
H	 -2.018381371	 2.156795008	 0.994324901
C	 -0.837191770	 1.117131034	 -1.871487196
H	 -0.257454436	 0.572249968	 -2.612901313
H	 -1.008940234	 2.131306011	 -2.224548394
H	 -1.789482290	 0.603251171	 -1.750177588
C	 -0.105667392	 1.060691508	 -0.554681333
O	 0.167686397	 0.000000000	 0.000000000
N	 0.210730038	 2.259094899	 0.000000000
H	 0.040431258	 3.095773912	 -0.526017527
C	 0.935194138	 2.331820935	 1.250382340
H	 0.548636692	 1.572852223	 1.924166746
H	 2.001274531	 2.151490184	 1.114644936
H	 0.791759811	 3.314135919	 1.690922123
