19
0  1  0  1  0  1   7  12 -4.54760 -4.26033 -4.30790 -4.59516 -4.38801 -4.51435 -1.16052 -1.16412 -1.17973 -4.33844 -4.63995  5.71612 -1.30808 -4.10652
N	 -3.044733712	 0.618993928	 0.020680770
H	 -2.241270063	 0.000000000	 -0.000000000
H	 -3.853943497	 0.030739041	 0.169615517
C	 -2.897370200	 1.533481860	 1.151840245
H	 -3.758895612	 2.197267700	 1.198307407
H	 -2.788201659	 1.051368407	 2.127897830
H	 -2.018381371	 2.156795008	 0.994324901
C	 0.654497715	 1.469902938	 -1.776597706
H	 1.224067351	 0.708153426	 -2.303867804
H	 1.141367613	 2.434078464	 -1.903183195
H	 -0.342891487	 1.501015183	 -2.212364361
C	 0.520299035	 1.055262686	 -0.333560911
O	 -0.011319185	 0.000000000	 0.000000000
N	 0.999180332	 1.934911752	 0.583412168
H	 1.496757650	 2.744646422	 0.263295845
C	 0.948828534	 1.635662296	 1.998158705
H	 -0.006624846	 1.171654834	 2.224546656
H	 1.738172025	 0.946451088	 2.297150329
H	 1.046337763	 2.558089190	 2.563147209
