19
0  1  0  1  0  1   7  12  6.13041  7.18144  6.66050  5.60947  6.50440  5.96864 16.80444 16.78887 16.74532  6.65953 -19.83336 44.37599 -5.20179 -12.68130
N	 -3.044733712	 0.618993928	 0.020680770
H	 -2.241270063	 0.000000000	 -0.000000000
H	 -3.853943497	 0.030739041	 0.169615517
C	 -2.897370200	 1.533481860	 1.151840245
H	 -3.758895612	 2.197267700	 1.198307407
H	 -2.788201659	 1.051368407	 2.127897830
H	 -2.018381371	 2.156795008	 0.994324901
C	 -1.138311328	 1.117131034	 -1.871487196
H	 -0.558573994	 0.572249968	 -2.612901313
H	 -1.310059792	 2.131306011	 -2.224548394
H	 -2.090601848	 0.603251171	 -1.750177588
C	 -0.406786949	 1.060691508	 -0.554681333
O	 -0.133433160	 0.000000000	 0.000000000
N	 -0.090389519	 2.259094899	 0.000000000
H	 -0.260688300	 3.095773912	 -0.526017527
C	 0.634074581	 2.331820935	 1.250382340
H	 0.247517135	 1.572852223	 1.924166746
H	 1.700154974	 2.151490184	 1.114644936
H	 0.490640254	 3.314135919	 1.690922123
