19
0  1  0  1  0  1   7  12 -4.41226 -4.17854 -4.15805 -4.39177 -4.22027 -4.32479 -2.18931 -2.19200 -2.20474 -4.25711 -4.43959  4.38885 -1.27095 -2.93542
N	 0.803463650	 0.618993928	 -0.020680770
H	 0.000000000	 0.000000000	 0.000000000
H	 1.612673434	 0.030739041	 -0.169615517
C	 0.656100137	 1.533481860	 -1.151840245
H	 1.517625550	 2.197267700	 -1.198307407
H	 0.546931597	 1.051368407	 -2.127897830
H	 -0.222888692	 2.156795008	 -0.994324901
C	 -2.431221641	 0.252148754	 1.871487196
H	 -2.249209462	 -0.522359037	 2.612901313
H	 -3.223648703	 0.907974775	 2.224548394
H	 -1.510043365	 0.819916605	 1.750177588
C	 -2.748105767	 -0.409589704	 0.554681333
O	 -1.966196870	 -1.176666783	 -0.000000000
N	 -3.944152263	 -0.084396220	 0.000000000
H	 -4.583588153	 0.481426356	 0.526017527
C	 -4.369366908	 -0.675437518	 -1.250382340
H	 -3.518802000	 -0.720153305	 -1.924166746
H	 -4.746236092	 -1.688855596	 -1.114644936
H	 -5.148359475	 -0.060062255	 -1.690922123
