19
0  1  0  1  0  1   7  12 -1.99250 -1.81883 -1.77373 -1.94740 -1.84197 -1.90395  0.01262  0.00655  0.00411 -1.87026 -1.88373  2.71924 -0.46217 -2.24360
N	 -3.044733712	 0.618993928	 0.020680770
H	 -2.241270063	 0.000000000	 -0.000000000
H	 -3.853943497	 0.030739041	 0.169615517
C	 -2.897370200	 1.533481860	 1.151840245
H	 -3.758895612	 2.197267700	 1.198307407
H	 -2.788201659	 1.051368407	 2.127897830
H	 -2.018381371	 2.156795008	 0.994324901
C	 0.106183354	 1.469902938	 -1.464913203
H	 -0.065661127	 0.708153426	 -2.221810026
H	 0.239992054	 2.434078464	 -1.949847647
H	 -0.769896240	 1.501015183	 -0.819032144
C	 1.288790537	 1.055262686	 -0.627175339
O	 1.311853650	 0.000000000	 0.000000000
N	 2.322353167	 1.934911752	 -0.583412168
H	 2.293912958	 2.744646422	 -1.174384928
C	 3.522383709	 1.635662296	 0.167567036
H	 3.240714735	 1.171654834	 1.108207911
H	 4.175989796	 0.946451088	 -0.366528667
H	 4.060432721	 2.558089190	 0.365615819
