19
0  1  0  1  0  1   7  12 -2.20257 -1.49424 -1.85129 -2.55963 -1.98789 -2.33205  5.59634  5.58780  5.55551 -1.48371 -12.50800 23.91729 -3.63628 -9.25673
N	 0.369886530	 0.618993928	 -0.244807776
H	 -0.433577120	 0.000000000	 -0.224127006
H	 1.179096314	 0.030739041	 -0.393742523
C	 0.222523017	 1.533481860	 -1.375967251
H	 1.084048430	 2.197267700	 -1.422434413
H	 0.113354477	 1.051368407	 -2.352024836
H	 -0.656465812	 2.156795008	 -1.218451907
C	 -2.833702498	 1.469902938	 0.655962675
H	 -3.403272134	 0.708153426	 1.183232773
H	 -3.320572396	 2.434078464	 0.782548164
H	 -1.836313296	 1.501015183	 1.091729330
C	 -2.699503818	 1.055262686	 -0.787074120
O	 -2.167885598	 -0.000000000	 -1.120635031
N	 -3.178385115	 1.934911752	 -1.704047199
H	 -3.675962434	 2.744646422	 -1.383930877
C	 -3.128033318	 1.635662296	 -3.118793737
H	 -2.172579938	 1.171654834	 -3.345181687
H	 -3.917376808	 0.946451088	 -3.417785360
H	 -3.225542546	 2.558089190	 -3.683782241
