19
0  1  0  1  0  1   7  12 -2.25807 -1.46524 -1.81481 -2.60764 -1.94029 -2.34427  5.11432  5.09942  5.05635 -1.51001 -16.71195 30.33185 -5.79201 -9.33790
N	 -0.126705687	 0.782877571	 0.040364942
H	 0.573880287	 0.529915767	 -0.648347358
H	 -1.018249601	 0.495419915	 -0.341162766
C	 0.137488182	 0.034215417	 1.268058927
H	 -0.614146930	 0.282775285	 2.015226596
H	 0.154979021	 -1.053787368	 1.154113455
H	 1.103460274	 0.337014245	 1.669509438
C	 2.293878677	 2.687470330	 -0.154397997
H	 2.418497147	 3.098647061	 -1.153442329
H	 2.800450053	 3.328462882	 0.563386523
H	 1.227466921	 2.660940803	 0.064023432
C	 2.805870368	 1.269672649	 -0.152103965
O	 2.345890483	 0.403936230	 -0.891278578
N	 3.792353337	 0.996640303	 0.740226743
H	 4.192114358	 1.751573078	 1.265579497
C	 4.380798676	 -0.322950242	 0.817726310
H	 3.592622064	 -1.064280389	 0.724705714
H	 5.102058458	 -0.494945614	 0.019181918
H	 4.875452189	 -0.438818431	 1.777665838
