19
0  1  0  1  0  1   7  12 -1.67681 -1.57604 -1.53102 -1.63179 -1.57945 -1.60984 -0.45313 -0.45536 -0.45565 -1.60919 -1.02189  0.98650 -0.19514 -1.37865
N	 -3.044733712	 0.618993928	 0.020680770
H	 -2.241270063	 0.000000000	 -0.000000000
H	 -3.853943497	 0.030739041	 0.169615517
C	 -2.897370200	 1.533481860	 1.151840245
H	 -3.758895612	 2.197267700	 1.198307407
H	 -2.788201659	 1.051368407	 2.127897830
H	 -2.018381371	 2.156795008	 0.994324901
C	 0.461495725	 1.469902938	 -1.464913203
H	 0.289651244	 0.708153426	 -2.221810026
H	 0.595304425	 2.434078464	 -1.949847647
H	 -0.414583869	 1.501015183	 -0.819032144
C	 1.644102908	 1.055262686	 -0.627175339
O	 1.667166021	 0.000000000	 0.000000000
N	 2.677665538	 1.934911752	 -0.583412168
H	 2.649225329	 2.744646422	 -1.174384928
C	 3.877696080	 1.635662296	 0.167567036
H	 3.596027106	 1.171654834	 1.108207911
H	 4.531302167	 0.946451088	 -0.366528667
H	 4.415745092	 2.558089190	 0.365615819
