19
0  1  0  1  0  1   7  12 -4.95676 -4.71614 -4.73800 -4.97863 -4.80776 -4.90988 -2.24974 -2.25195 -2.25986 -4.86808 -4.42265  3.97511 -1.05572 -3.36482
N	 -0.569708236	 0.814372455	 0.101097747
H	 0.130877738	 0.561410651	 -0.587614553
H	 -1.461252150	 0.526914799	 -0.280429961
C	 -0.305514367	 0.065710301	 1.328791732
H	 -1.057149479	 0.314270169	 2.075959401
H	 -0.288023528	 -1.022292484	 1.214846260
H	 0.660457725	 0.368509129	 1.730242243
C	 2.515379951	 2.671722888	 -0.184764400
H	 2.639998422	 3.082899619	 -1.183808732
H	 3.021951328	 3.312715440	 0.533020121
H	 1.448968196	 2.645193361	 0.033657030
C	 3.027371642	 1.253925207	 -0.182470368
O	 2.567391757	 0.388188788	 -0.921644980
N	 4.013854612	 0.980892861	 0.709860341
H	 4.413615633	 1.735825636	 1.235213095
C	 4.602299951	 -0.338697684	 0.787359907
H	 3.814123338	 -1.080027831	 0.694339311
H	 5.323559732	 -0.510693056	 -0.011184485
H	 5.096953464	 -0.454565873	 1.747299435
