19
0  1  0  1  0  1   7  12 -4.10989 -3.92922 -3.91251 -4.09318 -3.95962 -4.04049 -2.18924 -2.18958 -2.19823 -4.06858 -3.90733  3.46326 -1.04959 -2.57492
N	 -3.044733712	 0.618993928	 0.020680770
H	 -2.241270063	 0.000000000	 -0.000000000
H	 -3.853943497	 0.030739041	 0.169615517
C	 -2.897370200	 1.533481860	 1.151840245
H	 -3.758895612	 2.197267700	 1.198307407
H	 -2.788201659	 1.051368407	 2.127897830
H	 -2.018381371	 2.156795008	 0.994324901
C	 0.553130656	 1.428815537	 -1.871487196
H	 0.371118478	 0.654307746	 -2.612901313
H	 1.345557718	 2.084641559	 -2.224548394
H	 -0.368047619	 1.996583388	 -1.750177588
C	 0.870014782	 0.767077080	 -0.554681333
O	 0.088105885	 0.000000000	 0.000000000
N	 2.066061278	 1.092270563	 0.000000000
H	 2.705497168	 1.658093139	 -0.526017527
C	 2.491275922	 0.501229266	 1.250382340
H	 1.640711014	 0.456513478	 1.924166746
H	 2.868145107	 -0.512188812	 1.114644936
H	 3.270268489	 1.116604529	 1.690922123
