19
0  1  0  1  0  1   7  12 -4.07442 -3.89452 -3.90838 -4.08829 -3.96692 -4.03953 -1.74188 -1.74199 -1.74777 -3.99473 -3.07024  2.67735 -0.73755 -2.86429
N	 -3.044733712	 0.618993928	 0.020680770
H	 -2.241270063	 0.000000000	 -0.000000000
H	 -3.853943497	 0.030739041	 0.169615517
C	 -2.897370200	 1.533481860	 1.151840245
H	 -3.758895612	 2.197267700	 1.198307407
H	 -2.788201659	 1.051368407	 2.127897830
H	 -2.018381371	 2.156795008	 0.994324901
C	 0.877492803	 1.469902938	 -1.776597706
H	 1.447062439	 0.708153426	 -2.303867804
H	 1.364362701	 2.434078464	 -1.903183195
H	 -0.119896399	 1.501015183	 -2.212364361
C	 0.743294123	 1.055262686	 -0.333560911
O	 0.211675903	 0.000000000	 0.000000000
N	 1.222175420	 1.934911752	 0.583412168
H	 1.719752738	 2.744646422	 0.263295845
C	 1.171823622	 1.635662296	 1.998158705
H	 0.216370242	 1.171654834	 2.224546656
H	 1.961167113	 0.946451088	 2.297150329
H	 1.269332851	 2.558089190	 2.563147209
