19
0  1  0  1  0  1   7  12 -4.19968 -3.74491 -3.87676 -4.33153 -3.98234 -4.19703  0.73815  0.72930  0.69893 -3.72701 -7.49379 12.15261 -2.43311 -5.95272
N	 -3.044733712	 0.618993928	 0.020680770
H	 -2.241270063	 0.000000000	 -0.000000000
H	 -3.853943497	 0.030739041	 0.169615517
C	 -2.897370200	 1.533481860	 1.151840245
H	 -3.758895612	 2.197267700	 1.198307407
H	 -2.788201659	 1.051368407	 2.127897830
H	 -2.018381371	 2.156795008	 0.994324901
C	 0.431502627	 1.469902938	 -1.776597706
H	 1.001072263	 0.708153426	 -2.303867804
H	 0.918372525	 2.434078464	 -1.903183195
H	 -0.565886575	 1.501015183	 -2.212364361
C	 0.297303947	 1.055262686	 -0.333560911
O	 -0.234314273	 0.000000000	 0.000000000
N	 0.776185244	 1.934911752	 0.583412168
H	 1.273762562	 2.744646422	 0.263295845
C	 0.725833446	 1.635662296	 1.998158705
H	 -0.229619934	 1.171654834	 2.224546656
H	 1.515176937	 0.946451088	 2.297150329
H	 0.823342675	 2.558089190	 2.563147209
