19
0  1  0  1  0  1   7  12  6.45440  7.31266  6.87836  6.02010  6.74961  6.32143 14.50982 14.49905 14.48381  6.31384 -18.48016 41.54601 -7.03808 -9.71392
N	 -3.044733712	 0.618993928	 0.020680770
H	 -2.241270063	 0.000000000	 -0.000000000
H	 -3.853943497	 0.030739041	 0.169615517
C	 -2.897370200	 1.533481860	 1.151840245
H	 -3.758895612	 2.197267700	 1.198307407
H	 -2.788201659	 1.051368407	 2.127897830
H	 -2.018381371	 2.156795008	 0.994324901
C	 -0.959753760	 1.469902938	 -1.464913203
H	 -1.131598241	 0.708153426	 -2.221810026
H	 -0.825945060	 2.434078464	 -1.949847647
H	 -1.835833354	 1.501015183	 -0.819032144
C	 0.222853423	 1.055262686	 -0.627175339
O	 0.245916536	 0.000000000	 0.000000000
N	 1.256416053	 1.934911752	 -0.583412168
H	 1.227975844	 2.744646422	 -1.174384928
C	 2.456446595	 1.635662296	 0.167567036
H	 2.174777621	 1.171654834	 1.108207911
H	 3.110052682	 0.946451088	 -0.366528667
H	 2.994495607	 2.558089190	 0.365615819
