19
0  1  0  1  0  1   7  12  7.35574  8.62087  7.83475  6.56962  7.65822  7.00698 19.67297 19.65783 19.60592  7.91654 -26.17187 55.81789 -6.85056 -14.87892
N	 0.024534760	 0.955184437	 -0.020680770
H	 -0.778928890	 0.336190509	 0.000000000
H	 0.833744544	 0.366929550	 -0.169615517
C	 -0.122828753	 1.869672369	 -1.151840245
H	 0.738696660	 2.533458209	 -1.198307407
H	 -0.231997293	 1.387558916	 -2.127897830
H	 -1.001817582	 2.492985517	 -0.994324901
C	 -1.591551467	 2.237766065	 1.871487196
H	 -2.171288800	 1.692884999	 2.612901313
H	 -1.419803003	 3.251941042	 2.224548394
H	 -0.639260946	 1.723886202	 1.750177588
C	 -2.323075845	 2.181326539	 0.554681333
O	 -2.596429634	 1.120635031	 -0.000000000
N	 -2.639473275	 3.379729931	 0.000000000
H	 -2.469174495	 4.216408944	 0.526017527
C	 -3.363937376	 3.452455966	 -1.250382340
H	 -2.977379930	 2.693487255	 -1.924166746
H	 -4.430017768	 3.272125215	 -1.114644936
H	 -3.220503049	 4.434770950	 -1.690922123
