19
0  1  0  1  0  1   7  12 -4.36310 -4.13577 -4.16231 -4.38964 -4.23103 -4.32692 -1.55409 -1.55570 -1.56563 -4.23166 -3.74344  3.91323 -0.97642 -3.42503
N	 -3.044733712	 0.618993928	 0.020680770
H	 -2.241270063	 0.000000000	 -0.000000000
H	 -3.853943497	 0.030739041	 0.169615517
C	 -2.897370200	 1.533481860	 1.151840245
H	 -3.758895612	 2.197267700	 1.198307407
H	 -2.788201659	 1.051368407	 2.127897830
H	 -2.018381371	 2.156795008	 0.994324901
C	 0.765995259	 1.469902938	 -1.776597706
H	 1.335564895	 0.708153426	 -2.303867804
H	 1.252865157	 2.434078464	 -1.903183195
H	 -0.231393943	 1.501015183	 -2.212364361
C	 0.631796579	 1.055262686	 -0.333560911
O	 0.100178359	 0.000000000	 0.000000000
N	 1.110677876	 1.934911752	 0.583412168
H	 1.608255194	 2.744646422	 0.263295845
C	 1.060326078	 1.635662296	 1.998158705
H	 0.104872698	 1.171654834	 2.224546656
H	 1.849669569	 0.946451088	 2.297150329
H	 1.157835307	 2.558089190	 2.563147209
