19
0  1  0  1  0  1   7  12 -5.39953 -4.96031 -5.06449 -5.50372 -5.16073 -5.36964 -0.93079 -0.93856 -0.96373 -5.09580 -8.15391 11.01926 -2.40014 -5.56101
N	 -0.569708236	 0.814372455	 0.101097747
H	 0.130877738	 0.561410651	 -0.587614553
H	 -1.461252150	 0.526914799	 -0.280429961
C	 -0.305514367	 0.065710301	 1.328791732
H	 -1.057149479	 0.314270169	 2.075959401
H	 -0.288023528	 -1.022292484	 1.214846260
H	 0.660457725	 0.368509129	 1.730242243
C	 2.183128040	 2.695344051	 -0.139214796
H	 2.307746510	 3.106520782	 -1.138259128
H	 2.689699416	 3.336336603	 0.578569724
H	 1.116716284	 2.668814524	 0.079206633
C	 2.695119731	 1.277546370	 -0.136920764
O	 2.235139846	 0.411809951	 -0.876095377
N	 3.681602700	 1.004514024	 0.755409944
H	 4.081363721	 1.759446799	 1.280762698
C	 4.270048039	 -0.315076521	 0.832909511
H	 3.481871427	 -1.056406668	 0.739888915
H	 4.991307821	 -0.487071893	 0.034365119
H	 4.764701552	 -0.430944710	 1.792849039
