19
0  1  0  1  0  1   7  12 -4.34517 -4.08591 -4.05491 -4.31416 -4.12654 -4.23866 -1.88515 -1.89153 -1.90018 -4.34612 -5.18578  5.38632 -1.34926 -3.19739
N	 0.803463650	 0.618993928	 -0.020680770
H	 0.000000000	 0.000000000	 0.000000000
H	 1.612673434	 0.030739041	 -0.169615517
C	 0.656100137	 1.533481860	 -1.151840245
H	 1.517625550	 2.197267700	 -1.198307407
H	 0.546931597	 1.051368407	 -2.127897830
H	 -0.222888692	 2.156795008	 -0.994324901
C	 -1.163104137	 1.469902938	 2.641579986
H	 -0.991259656	 0.708153426	 3.398476809
H	 -1.296912836	 2.434078464	 3.126514431
H	 -0.287024543	 1.501015183	 1.995698927
C	 -2.345711319	 1.055262686	 1.803842123
O	 -2.368774432	 -0.000000000	 1.176666783
N	 -3.379273949	 1.934911752	 1.760078951
H	 -3.350833742	 2.744646422	 2.351051711
C	 -4.579304493	 1.635662296	 1.009099747
H	 -4.297635518	 1.171654834	 0.068458873
H	 -5.232910579	 0.946451088	 1.543195451
H	 -5.117353504	 2.558089190	 0.811050964
