19
0  1  0  1  0  1   7  12 -1.20363 -0.42259 -0.81747 -1.59851 -0.95687 -1.34013  7.16254  7.15366  7.12448 -0.82272 -14.35155 27.34447 -3.83837 -9.97727
N	 0.284177723	 0.843120934	 -0.020680770
H	 -0.519285927	 0.224127006	 0.000000000
H	 1.093387507	 0.254866047	 -0.169615517
C	 0.136814210	 1.757608866	 -1.151840245
H	 0.998339623	 2.421394706	 -1.198307407
H	 0.027645670	 1.275495413	 -2.127897830
H	 -0.742174619	 2.380922014	 -0.994324901
C	 -1.591551467	 2.237766065	 1.871487196
H	 -2.171288800	 1.692884999	 2.612901313
H	 -1.419803003	 3.251941042	 2.224548394
H	 -0.639260946	 1.723886202	 1.750177588
C	 -2.323075845	 2.181326539	 0.554681333
O	 -2.596429634	 1.120635031	 -0.000000000
N	 -2.639473275	 3.379729931	 0.000000000
H	 -2.469174495	 4.216408944	 0.526017527
C	 -3.363937376	 3.452455966	 -1.250382340
H	 -2.977379930	 2.693487255	 -1.924166746
H	 -4.430017768	 3.272125215	 -1.114644936
H	 -3.220503049	 4.434770950	 -1.690922123
