19
0  1  0  1  0  1   7  12 -1.40766 -0.66682 -0.85507 -1.59590 -0.96898 -1.34946  4.92883  4.91361  4.87084 -1.24332 -16.97216 29.51949 -5.57770 -8.21296
N	 0.352268520	 0.618993928	 0.203446236
H	 -0.451195130	 0.000000000	 0.224127006
H	 1.161478304	 0.030739041	 0.054511489
C	 0.204905007	 1.533481860	 -0.927713239
H	 1.066430420	 2.197267700	 -0.974180401
H	 0.095736467	 1.051368407	 -1.903770824
H	 -0.674083822	 2.156795008	 -0.770197895
C	 -1.050305354	 1.469902938	 2.585548234
H	 -0.878460873	 0.708153426	 3.342445057
H	 -1.184114054	 2.434078464	 3.070482679
H	 -0.174225760	 1.501015183	 1.939667175
C	 -2.232912537	 1.055262686	 1.747810371
O	 -2.255975650	 -0.000000000	 1.120635031
N	 -3.266475167	 1.934911752	 1.704047199
H	 -3.238034959	 2.744646422	 2.295019959
C	 -4.466505710	 1.635662296	 0.953067995
H	 -4.184836736	 1.171654834	 0.012427121
H	 -5.120111796	 0.946451088	 1.487163699
H	 -5.004554721	 2.558089190	 0.755019212
