19
0  1  0  1  0  1   7  12 -2.95312 -2.64950 -2.68508 -2.98870 -2.77209 -2.90016  0.83139  0.82424  0.81750 -2.78862 -4.05908  6.56899 -0.96563 -4.33289
N	 -3.044733712	 0.618993928	 0.020680770
H	 -2.241270063	 0.000000000	 -0.000000000
H	 -3.853943497	 0.030739041	 0.169615517
C	 -2.897370200	 1.533481860	 1.151840245
H	 -3.758895612	 2.197267700	 1.198307407
H	 -2.788201659	 1.051368407	 2.127897830
H	 -2.018381371	 2.156795008	 0.994324901
C	 -0.385512434	 1.117131034	 -1.871487196
H	 0.194224900	 0.572249968	 -2.612901313
H	 -0.557260898	 2.131306011	 -2.224548394
H	 -1.337802954	 0.603251171	 -1.750177588
C	 0.346011944	 1.060691508	 -0.554681333
O	 0.619365733	 0.000000000	 0.000000000
N	 0.662409374	 2.259094899	 0.000000000
H	 0.492110594	 3.095773912	 -0.526017527
C	 1.386873474	 2.331820935	 1.250382340
H	 1.000316028	 1.572852223	 1.924166746
H	 2.452953867	 2.151490184	 1.114644936
H	 1.243439147	 3.314135919	 1.690922123
