19
0  1  0  1  0  1   7  12 -1.98467 -1.75699 -1.72352 -1.95120 -1.80195 -1.89007  0.57081  0.56246  0.55812 -1.82441 -2.67624  4.44002 -0.72199 -2.86620
N	 -3.044733712	 0.618993928	 0.020680770
H	 -2.241270063	 0.000000000	 -0.000000000
H	 -3.853943497	 0.030739041	 0.169615517
C	 -2.897370200	 1.533481860	 1.151840245
H	 -3.758895612	 2.197267700	 1.198307407
H	 -2.788201659	 1.051368407	 2.127897830
H	 -2.018381371	 2.156795008	 0.994324901
C	 -0.071472832	 1.469902938	 -1.464913203
H	 -0.243317313	 0.708153426	 -2.221810026
H	 0.062335868	 2.434078464	 -1.949847647
H	 -0.947552426	 1.501015183	 -0.819032144
C	 1.111134351	 1.055262686	 -0.627175339
O	 1.134197464	 0.000000000	 0.000000000
N	 2.144696981	 1.934911752	 -0.583412168
H	 2.116256772	 2.744646422	 -1.174384928
C	 3.344727523	 1.635662296	 0.167567036
H	 3.063058549	 1.171654834	 1.108207911
H	 3.998333610	 0.946451088	 -0.366528667
H	 3.882776535	 2.558089190	 0.365615819
