19
0  1  0  1  0  1   7  12 -4.03153 -3.54557 -3.59074 -4.07670 -3.68600 -3.92271  0.31493  0.30466  0.27898 -3.94772 -10.29127 15.13268 -3.17159 -5.61754
N	 0.803463650	 0.618993928	 -0.020680770
H	 0.000000000	 0.000000000	 0.000000000
H	 1.612673434	 0.030739041	 -0.169615517
C	 0.656100137	 1.533481860	 -1.151840245
H	 1.517625550	 2.197267700	 -1.198307407
H	 0.546931597	 1.051368407	 -2.127897830
H	 -0.222888692	 2.156795008	 -0.994324901
C	 -0.824707789	 1.469902938	 2.473484731
H	 -0.652863308	 0.708153426	 3.230381554
H	 -0.958516489	 2.434078464	 2.958419176
H	 0.051371805	 1.501015183	 1.827603672
C	 -2.007314972	 1.055262686	 1.635746868
O	 -2.030378085	 -0.000000000	 1.008571528
N	 -3.040877602	 1.934911752	 1.591983696
H	 -3.012437394	 2.744646422	 2.182956456
C	 -4.240908145	 1.635662296	 0.841004492
H	 -3.959239171	 1.171654834	 -0.099636382
H	 -4.894514231	 0.946451088	 1.375100196
H	 -4.778957156	 2.558089190	 0.642955709
