10
0  1  0  1  0  1   7   3  2.62391  3.68238  3.00182  1.94335  2.86873  2.32087  9.06555  9.04463  9.01412  2.52874 -30.11284 59.22455 -17.22593 -9.35704
N	 0.000000000	 0.000000000	 0.000000000
H	 0.448498776	 -0.394747714	 -0.816644098
H	 0.479546247	 -0.398632422	 0.796814941
C	 0.175123597	 1.457336415	 0.000000000
H	 -0.307009369	 1.870241020	 0.882146780
H	 1.215108726	 1.789181054	 -0.014912441
H	 -0.332735816	 1.872908035	 -0.866441202
O	 -2.090205347	 0.265124471	 -1.173789663
H	 -1.288319594	 -0.000000000	 -0.692862146
H	 -2.570582498	 -0.555526738	 -1.289946030
