10
0  1  0  1  0  1   7   3 -4.01548 -3.80082 -3.82490 -4.03956 -3.88836 -3.97590 -2.26169 -2.26824 -2.26853 -3.77659 -3.81711  2.74442 -0.80363 -1.90027
N	 0.000000000	 0.000000000	 0.000000000
H	 0.448498776	 -0.394747714	 -0.816644098
H	 0.479546247	 -0.398632422	 0.796814941
C	 0.175123597	 1.457336415	 0.000000000
H	 -0.307009369	 1.870241020	 0.882146780
H	 1.215108726	 1.789181054	 -0.014912441
H	 -0.332735816	 1.872908035	 -0.866441202
O	 -3.045731173	 1.736356342	 -0.015552570
H	 -2.368631371	 1.039293219	 -0.000000000
H	 -3.866636823	 1.262700047	 0.124041641
