10
0  1  0  1  0  1   3   7 -3.27951 -2.57010 -2.85609 -3.56551 -2.96485 -3.31470  0.89130  0.86942  0.86326 -3.15244 -22.06899 34.79379 -9.70601 -6.17124
O	 0.628055885	 -0.237854068	 0.015552570
H	 -0.314168388	 0.000000000	 0.000000000
H	 0.628310328	 -1.185607364	 -0.124041641
N	 -1.979606133	 0.000000000	 -0.000000000
H	 -2.428104908	 -0.394747714	 0.816644098
H	 -2.459152380	 -0.398632422	 -0.796814941
C	 -2.154729729	 1.457336415	 0.000000000
H	 -1.672596764	 1.870241020	 -0.882146780
H	 -3.194714859	 1.789181054	 0.014912441
H	 -1.646870316	 1.872908035	 0.866441202
