10
0  1  0  1  0  1   7   3 -6.86658 -6.30399 -6.58352 -7.14612 -6.68344 -6.95290 -3.17162 -3.19378 -3.19844 -6.45343 -17.33127 22.95944 -7.07834 -5.00326
N	 -0.533463968	 -0.279593512	 0.106995757
H	 -0.629151376	 -1.248424552	 0.382848668
H	 -1.122603635	 -0.166159444	 -0.707764101
C	 -1.016909428	 0.588486102	 1.187373456
H	 -0.912759674	 1.625551742	 0.879521158
H	 -2.054737265	 0.415082130	 1.478503595
H	 -0.385023376	 0.448800896	 2.060614186
O	 1.944448131	 0.859679567	 0.217694944
H	 1.126930723	 0.363407079	 0.044542042
H	 2.526349580	 0.601181697	 -0.498051149
