10
0  1  0  1  0  1   7   3 -6.30799 -5.91401 -6.04897 -6.44295 -6.13546 -6.31818 -3.50373 -3.51734 -3.52908 -5.88667 -10.20749 11.41738 -3.62537 -3.47118
N	 0.000000000	 0.000000000	 0.000000000
H	 0.448498776	 -0.394747714	 -0.816644098
H	 0.479546247	 -0.398632422	 0.796814941
C	 0.175123597	 1.457336415	 0.000000000
H	 -0.307009369	 1.870241020	 0.882146780
H	 1.215108726	 1.789181054	 -0.014912441
H	 -0.332735816	 1.872908035	 -0.866441202
O	 -2.566382513	 0.265124471	 1.394302588
H	 -1.748944190	 -0.000000000	 0.940312913
H	 -2.907165453	 -0.555526738	 1.752243221
