10
0  1  0  1  0  1   3   7  5.09072  6.29979  5.48359  4.27453  5.34458  4.70971 11.86388 11.83458 11.79608  4.02296 -39.91488 78.23066 -23.46952 -10.82330
O	 1.575471533	 0.716790547	 0.231573547
H	 0.757954125	 0.220518059	 0.058420645
H	 2.157372982	 0.458292677	 -0.484172546
N	 -0.533463968	 -0.279593512	 0.106995757
H	 -0.629151376	 -1.248424552	 0.382848668
H	 -1.122603635	 -0.166159444	 -0.707764101
C	 -1.016909428	 0.588486102	 1.187373456
H	 -0.912759674	 1.625551742	 0.879521158
H	 -2.054737265	 0.415082130	 1.478503595
H	 -0.385023376	 0.448800896	 2.060614186
