10
0  1  0  1  0  1   7   3 -5.76141 -5.27419 -5.40149 -5.88871 -5.49267 -5.72525 -2.77555 -2.79286 -2.80143 -5.47530 -14.32742 18.29767 -5.26787 -4.17769
N	 -1.979606133	 0.000000000	 -0.000000000
H	 -2.428104908	 -0.394747714	 0.816644098
H	 -2.459152380	 -0.398632422	 -0.796814941
C	 -2.154729729	 1.457336415	 0.000000000
H	 -1.672596764	 1.870241020	 -0.882146780
H	 -3.194714859	 1.789181054	 0.014912441
H	 -1.646870316	 1.872908035	 0.866441202
O	 0.836235603	 -0.237854068	 0.015552570
H	 -0.105988670	 0.000000000	 0.000000000
H	 0.836490046	 -1.185607364	 -0.124041641
