10
0  1  0  1  0  1   7   3 -2.86821 -2.24038 -2.44893 -3.07676 -2.55134 -2.85536  1.95246  1.94424  1.94362 -1.92346 -11.97077 20.00105 -4.38979 -5.56394
N	 0.000000000	 0.000000000	 0.000000000
H	 0.448498776	 -0.394747714	 -0.816644098
H	 0.479546247	 -0.398632422	 0.796814941
C	 0.175123597	 1.457336415	 0.000000000
H	 -0.307009369	 1.870241020	 0.882146780
H	 1.215108726	 1.789181054	 -0.014912441
H	 -0.332735816	 1.872908035	 -0.866441202
O	 -2.481771323	 1.488905576	 -0.015552570
H	 -1.804671521	 0.791842453	 -0.000000000
H	 -3.302676973	 1.015249281	 0.124041641
