10
0  1  0  1  0  1   3   7 -3.79485 -2.97056 -3.46463 -4.28891 -3.58429 -3.99678  1.25371  1.22643  1.21428 -3.59370 -26.13017 42.60163 -12.75705 -7.30812
O	 1.759959832	 0.788235057	 0.224634245
H	 0.942442424	 0.291962569	 0.051481343
H	 2.341861281	 0.529737187	 -0.491111848
N	 -0.533463968	 -0.279593512	 0.106995757
H	 -0.629151376	 -1.248424552	 0.382848668
H	 -1.122603635	 -0.166159444	 -0.707764101
C	 -1.016909428	 0.588486102	 1.187373456
H	 -0.912759674	 1.625551742	 0.879521158
H	 -2.054737265	 0.415082130	 1.478503595
H	 -0.385023376	 0.448800896	 2.060614186
