10
0  1  0  1  0  1   7   3  2.92899  3.93385  3.46364  2.45879  3.33558  2.82675 10.00920  9.99793  9.99334  4.08292 -21.01058 42.74620 -9.00749 -8.64521
N	 0.000000000	 0.000000000	 0.000000000
H	 0.448498776	 -0.394747714	 -0.816644098
H	 0.479546247	 -0.398632422	 0.796814941
C	 0.175123597	 1.457336415	 0.000000000
H	 -0.307009369	 1.870241020	 0.882146780
H	 1.215108726	 1.789181054	 -0.014912441
H	 -0.332735816	 1.872908035	 -0.866441202
O	 -2.256187383	 1.389925269	 -0.015552570
H	 -1.579087581	 0.692862146	 -0.000000000
H	 -3.077093033	 0.916268974	 0.124041641
