10
0  1  0  1  0  1   7   3 -5.83560 -5.56725 -5.63674 -5.90509 -5.70170 -5.82456 -3.87480 -3.88222 -3.89473 -5.58330 -6.94669  5.73391 -1.99723 -2.37330
N	 0.000000000	 0.000000000	 0.000000000
H	 0.448498776	 -0.394747714	 -0.816644098
H	 0.479546247	 -0.398632422	 0.796814941
C	 0.175123597	 1.457336415	 0.000000000
H	 -0.307009369	 1.870241020	 0.882146780
H	 1.215108726	 1.789181054	 -0.014912441
H	 -0.332735816	 1.872908035	 -0.866441202
O	 -2.734365144	 0.265124471	 -1.520220736
H	 -1.932479391	 -0.000000000	 -1.039293219
H	 -3.214742295	 -0.555526738	 -1.636377103
