10
0  1  0  1  0  1   7   3 -5.68862 -5.40408 -5.44546 -5.73000 -5.51072 -5.64344 -3.68424 -3.69130 -3.70540 -5.54714 -7.92011  7.01932 -2.12278 -2.52357
N	 -1.979606133	 0.000000000	 -0.000000000
H	 -2.428104908	 -0.394747714	 0.816644098
H	 -2.459152380	 -0.398632422	 -0.796814941
C	 -2.154729729	 1.457336415	 0.000000000
H	 -1.672596764	 1.870241020	 -0.882146780
H	 -3.194714859	 1.789181054	 0.014912441
H	 -1.646870316	 1.872908035	 0.866441202
O	 1.042326382	 0.265124471	 -0.453989675
H	 0.224888059	 0.000000000	 0.000000000
H	 1.383109323	 -0.555526738	 -0.811930308
