10
0  1  0  1  0  1   7   3 -4.49392 -3.87985 -4.16990 -4.78397 -4.28040 -4.57439 -0.64187 -0.67127 -0.67806 -4.27407 -20.29074 30.48010 -9.09371 -5.36972
N	 0.000000000	 0.000000000	 0.000000000
H	 0.448498776	 -0.394747714	 -0.816644098
H	 0.479546247	 -0.398632422	 0.796814941
C	 0.175123597	 1.457336415	 0.000000000
H	 -0.307009369	 1.870241020	 0.882146780
H	 1.215108726	 1.789181054	 -0.014912441
H	 -0.332735816	 1.872908035	 -0.866441202
O	 -2.443393773	 -1.029696522	 -0.015552570
H	 -1.501169500	 -0.791842453	 -0.000000000
H	 -2.443648214	 -1.977449817	 0.124041641
