10
0  1  0  1  0  1   7   3 -6.08769 -5.68045 -5.75993 -6.16717 -5.84261 -6.03546 -3.57081 -3.58579 -3.59816 -5.82851 -11.68818 13.23364 -3.92221 -3.45177
N	 -1.979606133	 0.000000000	 -0.000000000
H	 -2.428104908	 -0.394747714	 0.816644098
H	 -2.459152380	 -0.398632422	 -0.796814941
C	 -2.154729729	 1.457336415	 0.000000000
H	 -1.672596764	 1.870241020	 -0.882146780
H	 -3.194714859	 1.789181054	 0.014912441
H	 -1.646870316	 1.872908035	 0.866441202
O	 0.940325462	 -0.237854068	 0.015552570
H	 -0.001898811	 0.000000000	 0.000000000
H	 0.940579905	 -1.185607364	 -0.124041641
