10
0  1  0  1  0  1   3   7 -2.82446 -2.08263 -2.42255 -3.16438 -2.53073 -2.90127  1.97630  1.95727  1.94728 -2.59112 -22.83844 36.31094 -9.46404 -6.59957
O	 0.517446812	 0.265124471	 -0.453989675
H	 -0.299991511	 0.000000000	 0.000000000
H	 0.858229753	 -0.555526738	 -0.811930308
N	 -1.979606133	 0.000000000	 -0.000000000
H	 -2.428104908	 -0.394747714	 0.816644098
H	 -2.459152380	 -0.398632422	 -0.796814941
C	 -2.154729729	 1.457336415	 0.000000000
H	 -1.672596764	 1.870241020	 -0.882146780
H	 -3.194714859	 1.789181054	 0.014912441
H	 -1.646870316	 1.872908035	 0.866441202
