10
0  1  0  1  0  1   3   7 -2.30996 -1.51146 -1.95921 -2.75770 -2.07489 -2.47454  3.48812  3.46860  3.45700 -1.72143 -23.09019 37.32761 -8.77577 -7.18308
O	 0.407399439	 0.697063123	 0.015552570
H	 -0.269700363	 0.000000000	 0.000000000
H	 1.228305091	 0.223406828	 -0.124041641
N	 -1.979606133	 0.000000000	 -0.000000000
H	 -2.428104908	 -0.394747714	 0.816644098
H	 -2.459152380	 -0.398632422	 -0.796814941
C	 -2.154729729	 1.457336415	 0.000000000
H	 -1.672596764	 1.870241020	 -0.882146780
H	 -3.194714859	 1.789181054	 0.014912441
H	 -1.646870316	 1.872908035	 0.866441202
