10
0  1  0  1  0  1   3   7 -5.89836 -5.55603 -5.62250 -5.96483 -5.69487 -5.85709 -3.50343 -3.51203 -3.52661 -5.69360 -9.61017  9.78729 -2.82501 -3.04570
O	 0.937350468	 0.265124471	 -0.453989675
H	 0.119912145	 0.000000000	 0.000000000
H	 1.278133409	 -0.555526738	 -0.811930308
N	 -1.979606133	 0.000000000	 -0.000000000
H	 -2.428104908	 -0.394747714	 0.816644098
H	 -2.459152380	 -0.398632422	 -0.796814941
C	 -2.154729729	 1.457336415	 0.000000000
H	 -1.672596764	 1.870241020	 -0.882146780
H	 -3.194714859	 1.789181054	 0.014912441
H	 -1.646870316	 1.872908035	 0.866441202
