10
0  1  0  1  0  1   7   3 -5.80782 -5.52394 -5.60911 -5.89299 -5.67848 -5.80708 -3.46552 -3.47290 -3.48377 -5.64373 -7.70466  6.64812 -1.92414 -2.66305
N	 -1.979606133	 0.000000000	 -0.000000000
H	 -2.428104908	 -0.394747714	 0.816644098
H	 -2.459152380	 -0.398632422	 -0.796814941
C	 -2.154729729	 1.457336415	 0.000000000
H	 -1.672596764	 1.870241020	 -0.882146780
H	 -3.194714859	 1.789181054	 0.014912441
H	 -1.646870316	 1.872908035	 0.866441202
O	 0.941744993	 0.697063123	 0.015552570
H	 0.264645191	 0.000000000	 0.000000000
H	 1.762650645	 0.223406828	 -0.124041641
