10
0  1  0  1  0  1   7   3 -6.27990 -5.93657 -6.03067 -6.37399 -6.11527 -6.26948 -3.98047 -4.00391 -4.01490 -6.05900 -10.81739 11.37969 -3.67446 -2.94684
N	 0.000000000	 0.000000000	 0.000000000
H	 0.448498776	 -0.394747714	 -0.816644098
H	 0.479546247	 -0.398632422	 0.796814941
C	 0.175123597	 1.457336415	 0.000000000
H	 -0.307009369	 1.870241020	 0.882146780
H	 1.215108726	 1.789181054	 -0.014912441
H	 -0.332735816	 1.872908035	 -0.866441202
O	 -2.724863054	 -1.178166982	 -0.015552570
H	 -1.782638781	 -0.940312913	 -0.000000000
H	 -2.725117495	 -2.125920277	 0.124041641
