10
0  1  0  1  0  1   3   7 -6.03943 -5.69335 -5.81052 -6.15659 -5.88719 -6.04796 -3.22713 -3.23594 -3.24785 -5.78417 -9.40646  9.42916 -2.57215 -3.23473
O	 0.834875882	 0.697063123	 0.015552570
H	 0.157776080	 0.000000000	 0.000000000
H	 1.655781534	 0.223406828	 -0.124041641
N	 -1.979606133	 0.000000000	 -0.000000000
H	 -2.428104908	 -0.394747714	 0.816644098
H	 -2.459152380	 -0.398632422	 -0.796814941
C	 -2.154729729	 1.457336415	 0.000000000
H	 -1.672596764	 1.870241020	 -0.882146780
H	 -3.194714859	 1.789181054	 0.014912441
H	 -1.646870316	 1.872908035	 0.866441202
