10
0  1  0  1  0  1   7   3 -5.72779 -5.44257 -5.49969 -5.78491 -5.56458 -5.69772 -3.66260 -3.67034 -3.68400 -5.56362 -7.94921  7.07975 -2.15303 -2.54112
N	 -1.979606133	 0.000000000	 -0.000000000
H	 -2.428104908	 -0.394747714	 0.816644098
H	 -2.459152380	 -0.398632422	 -0.796814941
C	 -2.154729729	 1.457336415	 0.000000000
H	 -1.672596764	 1.870241020	 -0.882146780
H	 -3.194714859	 1.789181054	 0.014912441
H	 -1.646870316	 1.872908035	 0.866441202
O	 1.019302350	 0.265124471	 0.480927516
H	 0.217416597	 0.000000000	 0.000000000
H	 1.499679502	 -0.555526738	 0.597083884
