10
0  1  0  1  0  1   7   3 -5.41802 -5.19589 -5.24680 -5.46894 -5.30460 -5.40403 -3.77830 -3.78434 -3.79482 -5.24269 -5.84107  4.07595 -1.50683 -1.97073
N	 0.000000000	 0.000000000	 0.000000000
H	 0.448498776	 -0.394747714	 -0.816644098
H	 0.479546247	 -0.398632422	 0.796814941
C	 0.175123597	 1.457336415	 0.000000000
H	 -0.307009369	 1.870241020	 0.882146780
H	 1.215108726	 1.789181054	 -0.014912441
H	 -0.332735816	 1.872908035	 -0.866441202
O	 -2.826387972	 0.265124471	 -1.569710890
H	 -2.024502219	 -0.000000000	 -1.088783373
H	 -3.306765123	 -0.555526738	 -1.685867257
