10
0  1  0  1  0  1   7   3 -6.08650 -5.80262 -5.86605 -6.14993 -5.94203 -6.06719 -4.15984 -4.18022 -4.19199 -5.92623 -8.91799  8.17138 -2.75383 -2.42579
N	 0.000000000	 0.000000000	 0.000000000
H	 0.448498776	 -0.394747714	 -0.816644098
H	 0.479546247	 -0.398632422	 0.796814941
C	 0.175123597	 1.457336415	 0.000000000
H	 -0.307009369	 1.870241020	 0.882146780
H	 1.215108726	 1.789181054	 -0.014912441
H	 -0.332735816	 1.872908035	 -0.866441202
O	 -2.818686148	 -1.227657135	 -0.015552570
H	 -1.876461875	 -0.989803066	 -0.000000000
H	 -2.818940589	 -2.175410430	 0.124041641
