10
0  1  0  1  0  1   7   3 -6.16511 -5.69019 -5.88163 -6.35655 -5.97744 -6.20021 -2.83718 -2.85283 -2.86135 -5.65996 -12.51641 15.96274 -4.89821 -4.20808
N	 0.000000000	 0.000000000	 0.000000000
H	 0.448498776	 -0.394747714	 -0.816644098
H	 0.479546247	 -0.398632422	 0.796814941
C	 0.175123597	 1.457336415	 0.000000000
H	 -0.307009369	 1.870241020	 0.882146780
H	 1.215108726	 1.789181054	 -0.014912441
H	 -0.332735816	 1.872908035	 -0.866441202
O	 -2.474332819	 0.265124471	 1.344812434
H	 -1.656894496	 -0.000000000	 0.890822759
H	 -2.815115759	 -0.555526738	 1.702753067
