10
0  1  0  1  0  1   7   3 -5.31172 -5.11938 -5.15075 -5.34309 -5.21075 -5.29084 -3.96887 -3.98297 -3.99145 -5.26129 -6.22339  4.19713 -1.57833 -1.65671
N	 0.000000000	 0.000000000	 0.000000000
H	 0.448498776	 -0.394747714	 -0.816644098
H	 0.479546247	 -0.398632422	 0.796814941
C	 0.175123597	 1.457336415	 0.000000000
H	 -0.307009369	 1.870241020	 0.882146780
H	 1.215108726	 1.789181054	 -0.014912441
H	 -0.332735816	 1.872908035	 -0.866441202
O	 -3.006332335	 -1.326637442	 -0.015552570
H	 -2.064108062	 -1.088783373	 -0.000000000
H	 -3.006586776	 -2.274390737	 0.124041641
