10
0  1  0  1  0  1   7   3 -5.55955 -5.05922 -5.24605 -5.74638 -5.33393 -5.57612 -2.06094 -2.07456 -2.08344 -5.19110 -14.62442 19.10560 -5.18097 -4.49131
N	 -1.979606133	 0.000000000	 -0.000000000
H	 -2.428104908	 -0.394747714	 0.816644098
H	 -2.459152380	 -0.398632422	 -0.796814941
C	 -2.154729729	 1.457336415	 0.000000000
H	 -1.672596764	 1.870241020	 -0.882146780
H	 -3.194714859	 1.789181054	 0.014912441
H	 -1.646870316	 1.872908035	 0.866441202
O	 0.705441960	 0.265124471	 0.480927516
H	 -0.096443793	 0.000000000	 0.000000000
H	 1.185819112	 -0.555526738	 0.597083884
