10
0  1  0  1  0  1   7   3 -6.70470 -6.42940 -6.51279 -6.78808 -6.57706 -6.70471 -4.78092 -4.79119 -4.80459 -6.52431 -8.30327  6.53396 -2.33493 -2.42007
N	 -0.533463968	 -0.279593512	 0.106995757
H	 -0.629151376	 -1.248424552	 0.382848668
H	 -1.122603635	 -0.166159444	 -0.707764101
C	 -1.016909428	 0.588486102	 1.187373456
H	 -0.912759674	 1.625551742	 0.879521158
H	 -2.054737265	 0.415082130	 1.478503595
H	 -0.385023376	 0.448800896	 2.060614186
O	 2.313424729	 1.002568587	 0.203816340
H	 1.495907321	 0.506296099	 0.030663438
H	 2.895326178	 0.744070717	 -0.511929753
