10
0  1  0  1  0  1   7   3 -5.86845 -5.58345 -5.60919 -5.89419 -5.67607 -5.80805 -4.09414 -4.10473 -4.11868 -5.71712 -8.01041  6.88632 -2.22017 -2.37286
N	 -1.979606133	 0.000000000	 -0.000000000
H	 -2.428104908	 -0.394747714	 0.816644098
H	 -2.459152380	 -0.398632422	 -0.796814941
C	 -2.154729729	 1.457336415	 0.000000000
H	 -1.672596764	 1.870241020	 -0.882146780
H	 -3.194714859	 1.789181054	 0.014912441
H	 -1.646870316	 1.872908035	 0.866441202
O	 1.148505180	 -0.237854068	 0.015552570
H	 0.206280907	 0.000000000	 0.000000000
H	 1.148759623	 -1.185607364	 -0.124041641
