10
0  1  0  1  0  1   3   7  4.10242  5.15133  4.59697  3.54806  4.47041  3.92643  9.83757  9.81223  9.78676  3.18991 -34.72316 65.53485 -18.37439 -9.24740
O	 0.419876167	 -0.237854068	 0.015552570
H	 -0.522348106	 0.000000000	 0.000000000
H	 0.420130610	 -1.185607364	 -0.124041641
N	 -1.979606133	 0.000000000	 -0.000000000
H	 -2.428104908	 -0.394747714	 0.816644098
H	 -2.459152380	 -0.398632422	 -0.796814941
C	 -2.154729729	 1.457336415	 0.000000000
H	 -1.672596764	 1.870241020	 -0.882146780
H	 -3.194714859	 1.789181054	 0.014912441
H	 -1.646870316	 1.872908035	 0.866441202
