10
0  1  0  1  0  1   3   7 -2.81089 -2.06408 -2.44271 -3.18952 -2.54952 -2.92351  2.12007  2.10060  2.09114 -2.50422 -22.91407 36.66641 -9.60733 -6.64923
O	 0.496201700	 0.265124471	 0.480927516
H	 -0.305684053	 0.000000000	 0.000000000
H	 0.976578852	 -0.555526738	 0.597083884
N	 -1.979606133	 0.000000000	 -0.000000000
H	 -2.428104908	 -0.394747714	 0.816644098
H	 -2.459152380	 -0.398632422	 -0.796814941
C	 -2.154729729	 1.457336415	 0.000000000
H	 -1.672596764	 1.870241020	 -0.882146780
H	 -3.194714859	 1.789181054	 0.014912441
H	 -1.646870316	 1.872908035	 0.866441202
