10
0  1  0  1  0  1   7   3 -4.31243 -4.04822 -4.08339 -4.34759 -4.15413 -4.26649 -2.15508 -2.16252 -2.16373 -3.98161 -4.64082  4.12100 -1.11276 -2.34903
N	 0.000000000	 0.000000000	 0.000000000
H	 0.448498776	 -0.394747714	 -0.816644098
H	 0.479546247	 -0.398632422	 0.796814941
C	 0.175123597	 1.457336415	 0.000000000
H	 -0.307009369	 1.870241020	 0.882146780
H	 1.215108726	 1.789181054	 -0.014912441
H	 -0.332735816	 1.872908035	 -0.866441202
O	 -2.932939203	 1.686866189	 -0.015552570
H	 -2.255839401	 0.989803066	 -0.000000000
H	 -3.753844853	 1.213209894	 0.124041641
