10
0  1  0  1  0  1   7   3 -5.35352 -5.11703 -5.14266 -5.37915 -5.20147 -5.30928 -3.67851 -3.68438 -3.69644 -5.26600 -6.59239  5.02682 -1.60608 -2.09435
N	 -1.979606133	 0.000000000	 -0.000000000
H	 -2.428104908	 -0.394747714	 0.816644098
H	 -2.459152380	 -0.398632422	 -0.796814941
C	 -2.154729729	 1.457336415	 0.000000000
H	 -1.672596764	 1.870241020	 -0.882146780
H	 -3.194714859	 1.789181054	 0.014912441
H	 -1.646870316	 1.872908035	 0.866441202
O	 1.147302296	 0.265124471	 -0.453989675
H	 0.329863973	 0.000000000	 0.000000000
H	 1.488085237	 -0.555526738	 -0.811930308
