10
0  1  0  1  0  1   7   3 -5.57122 -5.05276 -5.28351 -5.80197 -5.37732 -5.62674 -1.52608 -1.53933 -1.54864 -5.10058 -14.46269 18.85285 -4.69156 -4.79917
N	 -1.979606133	 0.000000000	 -0.000000000
H	 -2.428104908	 -0.394747714	 0.816644098
H	 -2.459152380	 -0.398632422	 -0.796814941
C	 -2.154729729	 1.457336415	 0.000000000
H	 -1.672596764	 1.870241020	 -0.882146780
H	 -3.194714859	 1.789181054	 0.014912441
H	 -1.646870316	 1.872908035	 0.866441202
O	 0.621137661	 0.697063123	 0.015552570
H	 -0.055962141	 0.000000000	 0.000000000
H	 1.442043313	 0.223406828	 -0.124041641
