10
0  1  0  1  0  1   7   3 -6.01679 -5.59413 -5.75798 -6.18064 -5.84270 -6.04281 -2.64243 -2.65318 -2.66442 -5.65415 -11.60433 13.34747 -3.46244 -3.93485
N	 -1.979606133	 0.000000000	 -0.000000000
H	 -2.428104908	 -0.394747714	 0.816644098
H	 -2.459152380	 -0.398632422	 -0.796814941
C	 -2.154729729	 1.457336415	 0.000000000
H	 -1.672596764	 1.870241020	 -0.882146780
H	 -3.194714859	 1.789181054	 0.014912441
H	 -1.646870316	 1.872908035	 0.866441202
O	 0.728006771	 0.697063123	 0.015552570
H	 0.050906969	 0.000000000	 0.000000000
H	 1.548912423	 0.223406828	 -0.124041641
