18
0  1  0  1  0  1  12   6 -3.84854 -3.22404 -3.37193 -3.99643 -3.48137 -3.79435  2.06196  2.05392  2.01786 -3.51632 -12.46508 19.54791 -3.38734 -7.21182
C	 0.738364052	 2.376935949	 0.573491176
H	 -0.281048311	 2.054312735	 0.770347516
H	 0.727466068	 3.210277008	 -0.125698571
H	 1.192284216	 2.730573515	 1.495919679
C	 1.605487059	 1.279174096	 0.000000000
O	 2.796542106	 1.446023796	 -0.241719716
N	 0.973051510	 0.105677200	 -0.240279361
H	 0.000000000	 -0.000000000	 0.000000000
C	 1.708694412	 -1.014609757	 -0.782554752
H	 2.241243610	 -0.715204023	 -1.682509862
H	 2.444910187	 -1.389621732	 -0.072565339
H	 1.008743710	 -1.809166558	 -1.024358950
O	 -1.823105789	 0.805921109	 -0.000000000
H	 -2.595659594	 0.928119658	 0.556362692
C	 -1.911911169	 1.722940049	 -1.085964280
H	 -1.028359999	 1.566827057	 -1.697287651
H	 -2.794001094	 1.541797994	 -1.699793470
H	 -1.918595421	 2.758177855	 -0.744828134
