18
0  1  0  1  0  1  12   6 -5.30361 -5.07691 -5.13635 -5.36306 -5.18793 -5.29256 -2.84989 -2.84851 -2.85653 -5.25366 -5.33100  4.23276 -1.14236 -3.01307
C	 0.738364052	 2.376935949	 0.573491176
H	 -0.281048311	 2.054312735	 0.770347516
H	 0.727466068	 3.210277008	 -0.125698571
H	 1.192284216	 2.730573515	 1.495919679
C	 1.605487059	 1.279174096	 0.000000000
O	 2.796542106	 1.446023796	 -0.241719716
N	 0.973051510	 0.105677200	 -0.240279361
H	 0.000000000	 -0.000000000	 0.000000000
C	 1.708694412	 -1.014609757	 -0.782554752
H	 2.241243610	 -0.715204023	 -1.682509862
H	 2.444910187	 -1.389621732	 -0.072565339
H	 1.008743710	 -1.809166558	 -1.024358950
O	 -2.019995698	 -0.000000000	 -1.057771455
H	 -2.930505921	 -0.280449855	 -0.941022478
C	 -1.940698442	 0.749759007	 -2.265952702
H	 -0.904774470	 1.056336775	 -2.373757144
H	 -2.216914480	 0.151840423	 -3.134215002
H	 -2.564550823	 1.642959120	 -2.232223951
