18
0  1  0  1  0  1   6  12 -2.72803 -2.14591 -2.36502 -2.94713 -2.44599 -2.74443  2.04233  2.03079  2.01013 -2.25308 -15.88851 26.83273 -6.65949 -6.53781
O	 0.057290759	 0.000000000	 0.000000000
H	 0.411438289	 -0.280449855	 -0.846899472
C	 1.063957783	 0.749759007	 0.672764062
H	 0.639357182	 1.056336775	 1.623802758
H	 1.954003011	 0.151840423	 0.867685106
H	 1.346674018	 1.642959120	 0.115627675
C	 -2.338748120	 2.376935949	 -0.573491176
H	 -1.319335757	 2.054312735	 -0.770347516
H	 -2.327850135	 3.210277008	 0.125698571
H	 -2.792668283	 2.730573515	 -1.495919679
C	 -3.205871126	 1.279174096	 0.000000000
O	 -4.396926174	 1.446023796	 0.241719716
N	 -2.573435578	 0.105677200	 0.240279361
H	 -1.600384067	 0.000000000	 0.000000000
C	 -3.309078479	 -1.014609757	 0.782554752
H	 -3.841627677	 -0.715204023	 1.682509862
H	 -4.045294255	 -1.389621732	 0.072565339
H	 -2.609127778	 -1.809166558	 1.024358950
