18
0  1  0  1  0  1   6  12 -5.75949 -5.28013 -5.45295 -5.93232 -5.53431 -5.77674 -1.59273 -1.60232 -1.63155 -5.34049 -11.40248 15.56885 -4.06880 -5.43806
O	 2.161854703	 0.252163619	 0.456667133
H	 2.882709511	 0.879463243	 0.547081945
C	 2.680938863	 -1.053202035	 0.690548923
H	 1.848367360	 -1.741989725	 0.584972354
H	 3.447077622	 -1.322194782	 -0.036331851
H	 3.089035906	 -1.154651233	 1.696183413
C	 -0.649250007	 -0.338318430	 2.515511987
H	 0.384410677	 -0.009866990	 2.439980769
H	 -0.682431193	 -1.340871071	 2.936498446
H	 -1.190735914	 0.318058611	 3.192224318
C	 -1.363965207	 -0.352142778	 1.183270795
O	 -2.549459663	 -0.650357431	 1.080556217
N	 -0.601586802	 -0.026174287	 0.112137016
H	 0.361254271	 0.241540674	 0.242508988
C	 -1.185283146	 -0.001171163	 -1.210341477
H	 -1.691550487	 -0.941620901	 -1.416300965
H	 -1.919905587	 0.797392132	 -1.307084175
H	 -0.394579220	 0.150750982	 -1.939332375
