18
0  1  0  1  0  1   6  12 -1.79186 -1.10230 -1.42478 -2.11434 -1.54023 -1.88638  4.79851  4.78104  4.74728 -1.21805 -12.06196 22.77471 -4.16211 -7.76869
O	 0.305481396	 0.000000000	 0.000000000
H	 1.215991618	 -0.280449855	 -0.116748978
C	 0.226184140	 0.749759007	 1.208181247
H	 -0.809739832	 1.056336775	 1.315985688
H	 0.502400178	 0.151840423	 2.076443547
H	 0.850036521	 1.642959120	 1.174452495
C	 -2.289109992	 2.376935949	 -0.573491176
H	 -1.269697629	 2.054312735	 -0.770347516
H	 -2.278212007	 3.210277008	 0.125698571
H	 -2.743030155	 2.730573515	 -1.495919679
C	 -3.156232998	 1.279174096	 0.000000000
O	 -4.347288046	 1.446023796	 0.241719716
N	 -2.523797450	 0.105677200	 0.240279361
H	 -1.550745939	 0.000000000	 0.000000000
C	 -3.259440351	 -1.014609757	 0.782554752
H	 -3.791989549	 -0.715204023	 1.682509862
H	 -3.995656127	 -1.389621732	 0.072565339
H	 -2.559489650	 -1.809166558	 1.024358950
