18
0  1  0  1  0  1  12   6 -4.50901 -4.27881 -4.27072 -4.50092 -4.33204 -4.43140 -2.04317 -2.04259 -2.04668 -4.47396 -4.57539  4.03013 -0.90260 -3.02610
C	 0.738364052	 2.376935949	 0.573491176
H	 -0.281048311	 2.054312735	 0.770347516
H	 0.727466068	 3.210277008	 -0.125698571
H	 1.192284216	 2.730573515	 1.495919679
C	 1.605487059	 1.279174096	 0.000000000
O	 2.796542106	 1.446023796	 -0.241719716
N	 0.973051510	 0.105677200	 -0.240279361
H	 0.000000000	 -0.000000000	 0.000000000
C	 1.708694412	 -1.014609757	 -0.782554752
H	 2.241243610	 -0.715204023	 -1.682509862
H	 2.444910187	 -1.389621732	 -0.072565339
H	 1.008743710	 -1.809166558	 -1.024358950
O	 -2.392826348	 1.057771455	 -0.000000000
H	 -3.165380153	 1.179970004	 0.556362692
C	 -2.481631728	 1.974790395	 -1.085964280
H	 -1.598080558	 1.818677403	 -1.697287651
H	 -3.363721653	 1.793648340	 -1.699793470
H	 -2.488315980	 3.010028201	 -0.744828134
