18
0  1  0  1  0  1   6  12 -5.44637 -5.25435 -5.24718 -5.43920 -5.28821 -5.37982 -3.73790 -3.73913 -3.74937 -5.35251 -5.31741  3.57293 -1.24885 -2.35918
O	 0.031782283	 0.000000000	 0.000000000
H	 0.523886232	 -0.607951946	 -0.556362692
C	 0.870346670	 0.381601754	 1.085964280
H	 0.293373268	 1.068723017	 1.697287651
H	 1.154518011	 -0.472881557	 1.699793470
H	 1.770231035	 0.893431925	 0.744828134
C	 -2.957825332	 2.376935949	 -0.573491176
H	 -1.938412969	 2.054312735	 -0.770347516
H	 -2.946927347	 3.210277008	 0.125698571
H	 -3.411745495	 2.730573515	 -1.495919679
C	 -3.824948338	 1.279174096	 0.000000000
O	 -5.016003386	 1.446023796	 0.241719716
N	 -3.192512790	 0.105677200	 0.240279361
H	 -2.219461279	 0.000000000	 0.000000000
C	 -3.928155691	 -1.014609757	 0.782554752
H	 -4.460704889	 -0.715204023	 1.682509862
H	 -4.664371467	 -1.389621732	 0.072565339
H	 -3.228204990	 -1.809166558	 1.024358950
