18
0  1  0  1  0  1   6  12 -5.77592 -5.54993 -5.57792 -5.80391 -5.63169 -5.73618 -3.61890 -3.62260 -3.63427 -5.67005 -5.52487  3.94529 -1.30658 -2.78388
O	 2.161854703	 0.252163619	 0.456667133
H	 2.882709511	 0.879463243	 0.547081945
C	 2.680938863	 -1.053202035	 0.690548923
H	 1.848367360	 -1.741989725	 0.584972354
H	 3.447077622	 -1.322194782	 -0.036331851
H	 3.089035906	 -1.154651233	 1.696183413
C	 -1.049383437	 -0.340679084	 2.467921289
H	 -0.015722753	 -0.012227644	 2.392390071
H	 -1.082564623	 -1.343231725	 2.888907748
H	 -1.590869344	 0.315697957	 3.144633620
C	 -1.764098637	 -0.354503432	 1.135680097
O	 -2.949593093	 -0.652718085	 1.032965519
N	 -1.001720232	 -0.028534941	 0.064546318
H	 -0.038879159	 0.239180020	 0.194918290
C	 -1.585416576	 -0.003531817	 -1.257932175
H	 -2.091683917	 -0.943981555	 -1.463891663
H	 -2.320039017	 0.795031478	 -1.354674873
H	 -0.794712650	 0.148390328	 -1.986923073
