18
0  1  0  1  0  1   6  12 -5.48233 -5.06107 -5.16199 -5.58324 -5.22714 -5.44506 -2.06589 -2.07414 -2.10270 -5.10423 -10.93625 14.36581 -3.84757 -4.68622
O	 0.031782283	 0.000000000	 0.000000000
H	 0.523886232	 -0.607951946	 -0.556362692
C	 0.870346670	 0.381601754	 1.085964280
H	 0.293373268	 1.068723017	 1.697287651
H	 1.154518011	 -0.472881557	 1.699793470
H	 1.770231035	 0.893431925	 0.744828134
C	 -2.548508320	 2.376935949	 -0.573491176
H	 -1.529095957	 2.054312735	 -0.770347516
H	 -2.537610335	 3.210277008	 0.125698571
H	 -3.002428483	 2.730573515	 -1.495919679
C	 -3.415631326	 1.279174096	 0.000000000
O	 -4.606686374	 1.446023796	 0.241719716
N	 -2.783195778	 0.105677200	 0.240279361
H	 -1.810144267	 0.000000000	 0.000000000
C	 -3.518838679	 -1.014609757	 0.782554752
H	 -4.051387877	 -0.715204023	 1.682509862
H	 -4.255054455	 -1.389621732	 0.072565339
H	 -2.818887978	 -1.809166558	 1.024358950
