18
0  1  0  1  0  1   6  12 -5.09923 -4.92430 -4.90719 -5.08212 -4.94587 -5.02799 -3.40536 -3.40422 -3.41215 -5.03134 -4.95257  3.33423 -1.14622 -2.26678
O	 0.057290759	 0.000000000	 0.000000000
H	 0.411438289	 -0.280449855	 -0.846899472
C	 1.063957783	 0.749759007	 0.672764062
H	 0.639357182	 1.056336775	 1.623802758
H	 1.954003011	 0.151840423	 0.867685106
H	 1.346674018	 1.642959120	 0.115627675
C	 -2.960376179	 2.376935949	 -0.573491176
H	 -1.940963816	 2.054312735	 -0.770347516
H	 -2.949478194	 3.210277008	 0.125698571
H	 -3.414296342	 2.730573515	 -1.495919679
C	 -3.827499185	 1.279174096	 0.000000000
O	 -5.018554233	 1.446023796	 0.241719716
N	 -3.195063637	 0.105677200	 0.240279361
H	 -2.222012126	 0.000000000	 0.000000000
C	 -3.930706538	 -1.014609757	 0.782554752
H	 -4.463255736	 -0.715204023	 1.682509862
H	 -4.666922314	 -1.389621732	 0.072565339
H	 -3.230755837	 -1.809166558	 1.024358950
