18
0  1  0  1  0  1   6  12 -5.50893 -5.18580 -5.21508 -5.53821 -5.27152 -5.43525 -2.64907 -2.65256 -2.67519 -5.25743 -8.33173  9.50209 -2.62885 -3.79894
O	 0.057290759	 0.000000000	 0.000000000
H	 0.411438289	 -0.280449855	 -0.846899472
C	 1.063957783	 0.749759007	 0.672764062
H	 0.639357182	 1.056336775	 1.623802758
H	 1.954003011	 0.151840423	 0.867685106
H	 1.346674018	 1.642959120	 0.115627675
C	 -2.649562149	 2.376935949	 -0.573491176
H	 -1.630149786	 2.054312735	 -0.770347516
H	 -2.638664164	 3.210277008	 0.125698571
H	 -3.103482312	 2.730573515	 -1.495919679
C	 -3.516685155	 1.279174096	 0.000000000
O	 -4.707740203	 1.446023796	 0.241719716
N	 -2.884249607	 0.105677200	 0.240279361
H	 -1.911198096	 0.000000000	 0.000000000
C	 -3.619892508	 -1.014609757	 0.782554752
H	 -4.152441706	 -0.715204023	 1.682509862
H	 -4.356108284	 -1.389621732	 0.072565339
H	 -2.919941807	 -1.809166558	 1.024358950
