18
0  1  0  1  0  1   6  12  5.00103  6.03420  5.31312  4.27995  5.20184  4.65263 12.87030 12.85263 12.81413  5.18596 -28.60752 59.80298 -14.86648 -11.14302
O	 2.161854703	 0.252163619	 0.456667133
H	 2.882709511	 0.879463243	 0.547081945
C	 2.680938863	 -1.053202035	 0.690548923
H	 1.848367360	 -1.741989725	 0.584972354
H	 3.447077622	 -1.322194782	 -0.036331851
H	 3.089035906	 -1.154651233	 1.696183413
C	 -0.249116578	 -0.335957775	 2.563102686
H	 0.784544106	 -0.007506335	 2.487571468
H	 -0.282297764	 -1.338510416	 2.984089145
H	 -0.790602485	 0.320419266	 3.239815017
C	 -0.963831778	 -0.349782123	 1.230861494
O	 -2.149326234	 -0.647996776	 1.128146916
N	 -0.201453373	 -0.023813632	 0.159727715
H	 0.761387700	 0.243901329	 0.290099687
C	 -0.785149717	 0.001189492	 -1.162750778
H	 -1.291417058	 -0.939260246	 -1.368710266
H	 -1.519772158	 0.799752787	 -1.259493476
H	 0.005554209	 0.153111637	 -1.891741676
