18
0  1  0  1  0  1  12   6 -3.65235 -3.05822 -3.24042 -3.83455 -3.33458 -3.63612  1.38943  1.37755  1.34794 -3.14638 -13.74749 22.53337 -5.31381 -6.61844
C	 0.738364052	 2.376935949	 0.573491176
H	 -0.281048311	 2.054312735	 0.770347516
H	 0.727466068	 3.210277008	 -0.125698571
H	 1.192284216	 2.730573515	 1.495919679
C	 1.605487059	 1.279174096	 0.000000000
O	 2.796542106	 1.446023796	 -0.241719716
N	 0.973051510	 0.105677200	 -0.240279361
H	 0.000000000	 -0.000000000	 0.000000000
C	 1.708694412	 -1.014609757	 -0.782554752
H	 2.241243610	 -0.715204023	 -1.682509862
H	 2.444910187	 -1.389621732	 -0.072565339
H	 1.008743710	 -1.809166558	 -1.024358950
O	 -1.532377887	 -0.000000000	 0.805921109
H	 -1.886525418	 -0.280449855	 1.652820582
C	 -2.539044911	 0.749759007	 0.133157048
H	 -2.114444310	 1.056336775	 -0.817881649
H	 -3.429090139	 0.151840423	 -0.061763996
H	 -2.821761146	 1.642959120	 0.690293434
