18
0  1  0  1  0  1  12   6 -5.61656 -5.35122 -5.40379 -5.66914 -5.45760 -5.58776 -3.24137 -3.24577 -3.26443 -5.44908 -6.50822  5.91026 -1.77544 -3.07569
C	 0.738364052	 2.376935949	 0.573491176
H	 -0.281048311	 2.054312735	 0.770347516
H	 0.727466068	 3.210277008	 -0.125698571
H	 1.192284216	 2.730573515	 1.495919679
C	 1.605487059	 1.279174096	 0.000000000
O	 2.796542106	 1.446023796	 -0.241719716
N	 0.973051510	 0.105677200	 -0.240279361
H	 0.000000000	 -0.000000000	 0.000000000
C	 1.708694412	 -1.014609757	 -0.782554752
H	 2.241243610	 -0.715204023	 -1.682509862
H	 2.444910187	 -1.389621732	 -0.072565339
H	 1.008743710	 -1.809166558	 -1.024358950
O	 -1.817166240	 -1.007401386	 -0.000000000
H	 -2.309270190	 -1.615353333	 0.556362692
C	 -2.655730627	 -0.625799632	 -1.085964280
H	 -2.078757225	 0.061321631	 -1.697287651
H	 -2.939901968	 -1.480282943	 -1.699793470
H	 -3.555614992	 -0.113969461	 -0.744828134
