18
0  1  0  1  0  1   6  12 -3.77222 -3.56476 -3.58414 -3.79161 -3.64863 -3.73269 -1.42219 -1.42712 -1.43043 -3.65551 -3.21424  2.92522 -0.68034 -2.68615
O	 0.305481396	 0.000000000	 0.000000000
H	 1.215991618	 -0.280449855	 -0.116748978
C	 0.226184140	 0.749759007	 1.208181247
H	 -0.809739832	 1.056336775	 1.315985688
H	 0.502400178	 0.151840423	 2.076443547
H	 0.850036521	 1.642959120	 1.174452495
C	 -2.985195243	 2.376935949	 -0.573491176
H	 -1.965782880	 2.054312735	 -0.770347516
H	 -2.974297258	 3.210277008	 0.125698571
H	 -3.439115406	 2.730573515	 -1.495919679
C	 -3.852318249	 1.279174096	 0.000000000
O	 -5.043373297	 1.446023796	 0.241719716
N	 -3.219882701	 0.105677200	 0.240279361
H	 -2.246831190	 0.000000000	 0.000000000
C	 -3.955525602	 -1.014609757	 0.782554752
H	 -4.488074800	 -0.715204023	 1.682509862
H	 -4.691741378	 -1.389621732	 0.072565339
H	 -3.255574901	 -1.809166558	 1.024358950
