18
0  1  0  1  0  1  12   6 -2.86257 -2.20717 -2.58390 -3.23930 -2.67329 -3.01404  3.19805  3.19193  3.15989 -2.41047 -15.94640 26.44580 -5.35000 -7.55987
C	 0.738364052	 2.376935949	 0.573491176
H	 -0.281048311	 2.054312735	 0.770347516
H	 0.727466068	 3.210277008	 -0.125698571
H	 1.192284216	 2.730573515	 1.495919679
C	 1.605487059	 1.279174096	 0.000000000
O	 2.796542106	 1.446023796	 -0.241719716
N	 0.973051510	 0.105677200	 -0.240279361
H	 0.000000000	 -0.000000000	 0.000000000
C	 1.708694412	 -1.014609757	 -0.782554752
H	 2.241243610	 -0.715204023	 -1.682509862
H	 2.444910187	 -1.389621732	 -0.072565339
H	 1.008743710	 -1.809166558	 -1.024358950
O	 -1.539044342	 -0.000000000	 -0.805921109
H	 -2.449554565	 -0.280449855	 -0.689172132
C	 -1.459747086	 0.749759007	 -2.014102356
H	 -0.423823114	 1.056336775	 -2.121906798
H	 -1.735963124	 0.151840423	 -2.882364656
H	 -2.083599467	 1.642959120	 -1.980373605
