18
0  1  0  1  0  1  12   6 -5.52839 -5.24782 -5.33227 -5.61285 -5.39078 -5.52473 -2.58846 -2.58770 -2.60089 -5.42956 -6.43244  6.12682 -1.52011 -3.60384
C	 0.738364052	 2.376935949	 0.573491176
H	 -0.281048311	 2.054312735	 0.770347516
H	 0.727466068	 3.210277008	 -0.125698571
H	 1.192284216	 2.730573515	 1.495919679
C	 1.605487059	 1.279174096	 0.000000000
O	 2.796542106	 1.446023796	 -0.241719716
N	 0.973051510	 0.105677200	 -0.240279361
H	 0.000000000	 -0.000000000	 0.000000000
C	 1.708694412	 -1.014609757	 -0.782554752
H	 2.241243610	 -0.715204023	 -1.682509862
H	 2.444910187	 -1.389621732	 -0.072565339
H	 1.008743710	 -1.809166558	 -1.024358950
O	 -1.923805427	 -0.000000000	 -1.007401386
H	 -2.834315650	 -0.280449855	 -0.890652409
C	 -1.844508171	 0.749759007	 -2.215582633
H	 -0.808584199	 1.056336775	 -2.323387075
H	 -2.120724209	 0.151840423	 -3.083844933
H	 -2.468360552	 1.642959120	 -2.181853882
