18
0  1  0  1  0  1   6  12 -5.34415 -4.91695 -5.00614 -5.43334 -5.10355 -5.30404 -1.01529 -1.02623 -1.04954 -5.07140 -7.79625 10.07838 -2.28265 -5.07088
O	 0.123579089	 0.000000000	 0.000000000
H	 0.896132893	 0.122198548	 -0.556362692
C	 0.212384469	 0.917018939	 1.085964280
H	 -0.671166701	 0.760905947	 1.697287651
H	 1.094474394	 0.735876884	 1.699793470
H	 0.219068721	 1.952256745	 0.744828134
C	 -2.646247733	 2.376935949	 -0.573491176
H	 -1.626835370	 2.054312735	 -0.770347516
H	 -2.635349748	 3.210277008	 0.125698571
H	 -3.100167896	 2.730573515	 -1.495919679
C	 -3.513370739	 1.279174096	 0.000000000
O	 -4.704425787	 1.446023796	 0.241719716
N	 -2.880935191	 0.105677200	 0.240279361
H	 -1.907883680	 0.000000000	 0.000000000
C	 -3.616578092	 -1.014609757	 0.782554752
H	 -4.149127290	 -0.715204023	 1.682509862
H	 -4.352793868	 -1.389621732	 0.072565339
H	 -2.916627391	 -1.809166558	 1.024358950
