18
0  1  0  1  0  1   6  12 -4.94256 -4.70726 -4.72451 -4.95981 -4.79378 -4.89282 -2.30643 -2.31101 -2.31825 -4.86115 -4.40959  3.56079 -0.96398 -3.04837
O	 0.123579089	 0.000000000	 0.000000000
H	 0.896132893	 0.122198548	 -0.556362692
C	 0.212384469	 0.917018939	 1.085964280
H	 -0.671166701	 0.760905947	 1.697287651
H	 1.094474394	 0.735876884	 1.699793470
H	 0.219068721	 1.952256745	 0.744828134
C	 -2.967005012	 2.376935949	 -0.573491176
H	 -1.947592649	 2.054312735	 -0.770347516
H	 -2.956107027	 3.210277008	 0.125698571
H	 -3.420925175	 2.730573515	 -1.495919679
C	 -3.834128018	 1.279174096	 0.000000000
O	 -5.025183066	 1.446023796	 0.241719716
N	 -3.201692470	 0.105677200	 0.240279361
H	 -2.228640959	 0.000000000	 0.000000000
C	 -3.937335371	 -1.014609757	 0.782554752
H	 -4.469884569	 -0.715204023	 1.682509862
H	 -4.673551147	 -1.389621732	 0.072565339
H	 -3.237384670	 -1.809166558	 1.024358950
