18
0  1  0  1  0  1   6  12 -4.09647 -3.71753 -3.81059 -4.18953 -3.90143 -4.07485 -0.15182 -0.16404 -0.18031 -3.82304 -5.86700  8.17876 -1.60574 -4.52906
O	 0.305481396	 0.000000000	 0.000000000
H	 1.215991618	 -0.280449855	 -0.116748978
C	 0.226184140	 0.749759007	 1.208181247
H	 -0.809739832	 1.056336775	 1.315985688
H	 0.502400178	 0.151840423	 2.076443547
H	 0.850036521	 1.642959120	 1.174452495
C	 -2.637152618	 2.376935949	 -0.573491176
H	 -1.617740255	 2.054312735	 -0.770347516
H	 -2.626254633	 3.210277008	 0.125698571
H	 -3.091072781	 2.730573515	 -1.495919679
C	 -3.504275624	 1.279174096	 0.000000000
O	 -4.695330672	 1.446023796	 0.241719716
N	 -2.871840076	 0.105677200	 0.240279361
H	 -1.898788565	 0.000000000	 0.000000000
C	 -3.607482977	 -1.014609757	 0.782554752
H	 -4.140032175	 -0.715204023	 1.682509862
H	 -4.343698753	 -1.389621732	 0.072565339
H	 -2.907532276	 -1.809166558	 1.024358950
