18
0  1  0  1  0  1  12   6 -4.74870 -4.46861 -4.47045 -4.75053 -4.54032 -4.66504 -1.80591 -1.80633 -1.81390 -4.68805 -5.48245  5.54618 -1.15795 -3.59383
C	 0.738364052	 2.376935949	 0.573491176
H	 -0.281048311	 2.054312735	 0.770347516
H	 0.727466068	 3.210277008	 -0.125698571
H	 1.192284216	 2.730573515	 1.495919679
C	 1.605487059	 1.279174096	 0.000000000
O	 2.796542106	 1.446023796	 -0.241719716
N	 0.973051510	 0.105677200	 -0.240279361
H	 0.000000000	 -0.000000000	 0.000000000
C	 1.708694412	 -1.014609757	 -0.782554752
H	 2.241243610	 -0.715204023	 -1.682509862
H	 2.444910187	 -1.389621732	 -0.072565339
H	 1.008743710	 -1.809166558	 -1.024358950
O	 -2.278882236	 1.007401386	 -0.000000000
H	 -3.051436041	 1.129599935	 0.556362692
C	 -2.367687616	 1.924420326	 -1.085964280
H	 -1.484136446	 1.768307334	 -1.697287651
H	 -3.249777541	 1.743278271	 -1.699793470
H	 -2.374371868	 2.959658132	 -0.744828134
