18
0  1  0  1  0  1   6  12 -4.12362 -3.81416 -3.87217 -4.18164 -3.95402 -4.09006 -0.80368 -0.81330 -0.82386 -3.91892 -4.73557  5.80884 -1.19367 -3.79851
O	 0.305481396	 0.000000000	 0.000000000
H	 1.215991618	 -0.280449855	 -0.116748978
C	 0.226184140	 0.749759007	 1.208181247
H	 -0.809739832	 1.056336775	 1.315985688
H	 0.502400178	 0.151840423	 2.076443547
H	 0.850036521	 1.642959120	 1.174452495
C	 -2.753166826	 2.376935949	 -0.573491176
H	 -1.733754463	 2.054312735	 -0.770347516
H	 -2.742268841	 3.210277008	 0.125698571
H	 -3.207086989	 2.730573515	 -1.495919679
C	 -3.620289832	 1.279174096	 -0.000000000
O	 -4.811344880	 1.446023796	 0.241719716
N	 -2.987854284	 0.105677200	 0.240279361
H	 -2.014802773	 0.000000000	 -0.000000000
C	 -3.723497185	 -1.014609757	 0.782554752
H	 -4.256046383	 -0.715204023	 1.682509862
H	 -4.459712961	 -1.389621732	 0.072565339
H	 -3.023546484	 -1.809166558	 1.024358950
