18
0  1  0  1  0  1  12   6 -5.52510 -5.19037 -5.20743 -5.54216 -5.27673 -5.43967 -2.47627 -2.48141 -2.50391 -5.29451 -7.22658  7.94984 -2.10801 -3.90976
C	 0.738364052	 2.376935949	 0.573491176
H	 -0.281048311	 2.054312735	 0.770347516
H	 0.727466068	 3.210277008	 -0.125698571
H	 1.192284216	 2.730573515	 1.495919679
C	 1.605487059	 1.279174096	 0.000000000
O	 2.796542106	 1.446023796	 -0.241719716
N	 0.973051510	 0.105677200	 -0.240279361
H	 0.000000000	 -0.000000000	 0.000000000
C	 1.708694412	 -1.014609757	 -0.782554752
H	 2.241243610	 -0.715204023	 -1.682509862
H	 2.444910187	 -1.389621732	 -0.072565339
H	 1.008743710	 -1.809166558	 -1.024358950
O	 -1.819698741	 -0.000000000	 0.957031317
H	 -2.173846272	 -0.280449855	 1.803930790
C	 -2.826365765	 0.749759007	 0.284267256
H	 -2.401765164	 1.056336775	 -0.666771441
H	 -3.716410993	 0.151840423	 0.089346212
H	 -3.109082000	 1.642959120	 0.841403642
