18
0  1  0  1  0  1   6  12 -5.22122 -4.93431 -4.96527 -5.25219 -5.04340 -5.16904 -2.11064 -2.11702 -2.12873 -5.09437 -5.26008  5.04210 -1.27141 -3.60499
O	 0.123579089	 0.000000000	 0.000000000
H	 0.896132893	 0.122198548	 -0.556362692
C	 0.212384469	 0.917018939	 1.085964280
H	 -0.671166701	 0.760905947	 1.697287651
H	 1.094474394	 0.735876884	 1.699793470
H	 0.219068721	 1.952256745	 0.744828134
C	 -2.860085919	 2.376935949	 -0.573491176
H	 -1.840673556	 2.054312735	 -0.770347516
H	 -2.849187934	 3.210277008	 0.125698571
H	 -3.314006082	 2.730573515	 -1.495919679
C	 -3.727208925	 1.279174096	 0.000000000
O	 -4.918263973	 1.446023796	 0.241719716
N	 -3.094773377	 0.105677200	 0.240279361
H	 -2.121721866	 0.000000000	 0.000000000
C	 -3.830416278	 -1.014609757	 0.782554752
H	 -4.362965476	 -0.715204023	 1.682509862
H	 -4.566632054	 -1.389621732	 0.072565339
H	 -3.130465577	 -1.809166558	 1.024358950
