18
0  1  0  1  0  1   6  12 -2.43933 -1.68045 -2.01263 -2.77151 -2.13946 -2.51686  4.62175  4.60371  4.57526 -1.88632 -15.55760 28.16235 -5.90835 -8.58273
O	 0.123579089	 0.000000000	 0.000000000
H	 0.896132893	 0.122198548	 -0.556362692
C	 0.212384469	 0.917018939	 1.085964280
H	 -0.671166701	 0.760905947	 1.697287651
H	 1.094474394	 0.735876884	 1.699793470
H	 0.219068721	 1.952256745	 0.744828134
C	 -2.325490454	 2.376935949	 -0.573491176
H	 -1.306078091	 2.054312735	 -0.770347516
H	 -2.314592469	 3.210277008	 0.125698571
H	 -2.779410617	 2.730573515	 -1.495919679
C	 -3.192613460	 1.279174096	 0.000000000
O	 -4.383668508	 1.446023796	 0.241719716
N	 -2.560177912	 0.105677200	 0.240279361
H	 -1.587126401	 0.000000000	 0.000000000
C	 -3.295820813	 -1.014609757	 0.782554752
H	 -3.828370011	 -0.715204023	 1.682509862
H	 -4.032036589	 -1.389621732	 0.072565339
H	 -2.595870112	 -1.809166558	 1.024358950
