18
0  1  0  1  0  1  12   6 -4.97677 -4.79304 -4.83639 -5.02012 -4.88165 -4.96340 -2.92776 -2.92620 -2.93021 -4.95901 -4.48580  2.92220 -0.86855 -2.52686
C	 0.738364052	 2.376935949	 0.573491176
H	 -0.281048311	 2.054312735	 0.770347516
H	 0.727466068	 3.210277008	 -0.125698571
H	 1.192284216	 2.730573515	 1.495919679
C	 1.605487059	 1.279174096	 0.000000000
O	 2.796542106	 1.446023796	 -0.241719716
N	 0.973051510	 0.105677200	 -0.240279361
H	 0.000000000	 -0.000000000	 0.000000000
C	 1.708694412	 -1.014609757	 -0.782554752
H	 2.241243610	 -0.715204023	 -1.682509862
H	 2.444910187	 -1.389621732	 -0.072565339
H	 1.008743710	 -1.809166558	 -1.024358950
O	 -2.116185970	 -0.000000000	 -1.108141525
H	 -3.026696193	 -0.280449855	 -0.991392548
C	 -2.036888714	 0.749759007	 -2.316322772
H	 -1.000964742	 1.056336775	 -2.424127214
H	 -2.313104752	 0.151840423	 -3.184585072
H	 -2.660741095	 1.642959120	 -2.282594021
