18
0  1  0  1  0  1   6  12 -5.37430 -5.15947 -5.14931 -5.36414 -5.19317 -5.29737 -3.35548 -3.35553 -3.36823 -5.26025 -5.81073  4.72949 -1.49434 -2.68466
O	 0.057290759	 0.000000000	 0.000000000
H	 0.411438289	 -0.280449855	 -0.846899472
C	 1.063957783	 0.749759007	 0.672764062
H	 0.639357182	 1.056336775	 1.623802758
H	 1.954003011	 0.151840423	 0.867685106
H	 1.346674018	 1.642959120	 0.115627675
C	 -2.856771503	 2.376935949	 -0.573491176
H	 -1.837359140	 2.054312735	 -0.770347516
H	 -2.845873518	 3.210277008	 0.125698571
H	 -3.310691666	 2.730573515	 -1.495919679
C	 -3.723894509	 1.279174096	 0.000000000
O	 -4.914949557	 1.446023796	 0.241719716
N	 -3.091458961	 0.105677200	 0.240279361
H	 -2.118407450	 0.000000000	 0.000000000
C	 -3.827101862	 -1.014609757	 0.782554752
H	 -4.359651060	 -0.715204023	 1.682509862
H	 -4.563317638	 -1.389621732	 0.072565339
H	 -3.127151161	 -1.809166558	 1.024358950
