18
0  1  0  1  0  1   6  12  4.21557  5.23592  4.56980  3.54945  4.44014  3.91221 13.45063 13.43273 13.40193  4.85243 -20.64090 45.02355 -8.27168 -11.25854
O	 0.305481396	 0.000000000	 0.000000000
H	 1.215991618	 -0.280449855	 -0.116748978
C	 0.226184140	 0.749759007	 1.208181247
H	 -0.809739832	 1.056336775	 1.315985688
H	 0.502400178	 0.151840423	 2.076443547
H	 0.850036521	 1.642959120	 1.174452495
C	 -2.057081575	 2.376935949	 -0.573491176
H	 -1.037669212	 2.054312735	 -0.770347516
H	 -2.046183590	 3.210277008	 0.125698571
H	 -2.511001738	 2.730573515	 -1.495919679
C	 -2.924204581	 1.279174096	 0.000000000
O	 -4.115259629	 1.446023796	 0.241719716
N	 -2.291769033	 0.105677200	 0.240279361
H	 -1.318717522	 0.000000000	 0.000000000
C	 -3.027411934	 -1.014609757	 0.782554752
H	 -3.559961132	 -0.715204023	 1.682509862
H	 -3.763627710	 -1.389621732	 0.072565339
H	 -2.327461233	 -1.809166558	 1.024358950
