18
0  1  0  1  0  1  12   6 -4.86346 -4.44565 -4.49092 -4.90873 -4.57961 -4.77804 -0.68468 -0.68802 -0.70735 -4.70841 -8.10595 10.42195 -1.94343 -5.08098
C	 0.738364052	 2.376935949	 0.573491176
H	 -0.281048311	 2.054312735	 0.770347516
H	 0.727466068	 3.210277008	 -0.125698571
H	 1.192284216	 2.730573515	 1.495919679
C	 1.605487059	 1.279174096	 0.000000000
O	 2.796542106	 1.446023796	 -0.241719716
N	 0.973051510	 0.105677200	 -0.240279361
H	 0.000000000	 -0.000000000	 0.000000000
C	 1.708694412	 -1.014609757	 -0.782554752
H	 2.241243610	 -0.715204023	 -1.682509862
H	 2.444910187	 -1.389621732	 -0.072565339
H	 1.008743710	 -1.809166558	 -1.024358950
O	 -2.050994012	 0.906661247	 -0.000000000
H	 -2.823547817	 1.028859796	 0.556362692
C	 -2.139799392	 1.823680187	 -1.085964280
H	 -1.256248222	 1.667567195	 -1.697287651
H	 -3.021889317	 1.642538132	 -1.699793470
H	 -2.146483644	 2.858917993	 -0.744828134
