18
0  1  0  1  0  1  12   6  4.69878  5.70883  4.95224  3.94219  4.84652  4.30640 13.37938 13.36881 13.32780  5.06080 -27.20072 54.11202 -10.71773 -11.13277
C	 0.738364052	 2.376935949	 0.573491176
H	 -0.281048311	 2.054312735	 0.770347516
H	 0.727466068	 3.210277008	 -0.125698571
H	 1.192284216	 2.730573515	 1.495919679
C	 1.605487059	 1.279174096	 0.000000000
O	 2.796542106	 1.446023796	 -0.241719716
N	 0.973051510	 0.105677200	 -0.240279361
H	 0.000000000	 -0.000000000	 0.000000000
C	 1.708694412	 -1.014609757	 -0.782554752
H	 2.241243610	 -0.715204023	 -1.682509862
H	 2.444910187	 -1.389621732	 -0.072565339
H	 1.008743710	 -1.809166558	 -1.024358950
O	 -1.346663799	 -0.000000000	 -0.705180970
H	 -2.257174022	 -0.280449855	 -0.588431993
C	 -1.267366543	 0.749759007	 -1.913362217
H	 -0.231442571	 1.056336775	 -2.021166659
H	 -1.543582581	 0.151840423	 -2.781624517
H	 -1.891218924	 1.642959120	 -1.879633466
