18
0  1  0  1  0  1   6  12  4.43333  5.31477  4.80935  3.92791  4.71271  4.24816 11.09333 11.07727 11.05159  4.67056 -25.87019 53.18063 -13.06797 -9.57190
O	 0.057290759	 0.000000000	 0.000000000
H	 0.411438289	 -0.280449855	 -0.846899472
C	 1.063957783	 0.749759007	 0.672764062
H	 0.639357182	 1.056336775	 1.623802758
H	 1.954003011	 0.151840423	 0.867685106
H	 1.346674018	 1.642959120	 0.115627675
C	 -2.131538766	 2.376935949	 -0.573491176
H	 -1.112126403	 2.054312735	 -0.770347516
H	 -2.120640781	 3.210277008	 0.125698571
H	 -2.585458929	 2.730573515	 -1.495919679
C	 -2.998661772	 1.279174096	 0.000000000
O	 -4.189716820	 1.446023796	 0.241719716
N	 -2.366226224	 0.105677200	 0.240279361
H	 -1.393174713	 0.000000000	 0.000000000
C	 -3.101869125	 -1.014609757	 0.782554752
H	 -3.634418323	 -0.715204023	 1.682509862
H	 -3.838084901	 -1.389621732	 0.072565339
H	 -2.401918424	 -1.809166558	 1.024358950
