18
0  1  0  1  0  1  12   6 -4.88945 -4.54773 -4.56631 -4.90803 -4.64535 -4.80250 -1.38104 -1.38275 -1.39529 -4.79129 -6.63422  7.60971 -1.49457 -4.27221
C	 0.738364052	 2.376935949	 0.573491176
H	 -0.281048311	 2.054312735	 0.770347516
H	 0.727466068	 3.210277008	 -0.125698571
H	 1.192284216	 2.730573515	 1.495919679
C	 1.605487059	 1.279174096	 0.000000000
O	 2.796542106	 1.446023796	 -0.241719716
N	 0.973051510	 0.105677200	 -0.240279361
H	 0.000000000	 -0.000000000	 0.000000000
C	 1.708694412	 -1.014609757	 -0.782554752
H	 2.241243610	 -0.715204023	 -1.682509862
H	 2.444910187	 -1.389621732	 -0.072565339
H	 1.008743710	 -1.809166558	 -1.024358950
O	 -2.164938124	 0.957031317	 -0.000000000
H	 -2.937491929	 1.079229866	 0.556362692
C	 -2.253743504	 1.874050257	 -1.085964280
H	 -1.370192334	 1.717937265	 -1.697287651
H	 -3.135833429	 1.692908202	 -1.699793470
H	 -2.260427756	 2.909288063	 -0.744828134
