18
0  1  0  1  0  1  12   6 -5.56443 -5.21692 -5.33933 -5.68684 -5.40527 -5.57612 -2.04088 -2.04125 -2.06036 -5.39453 -7.88509  8.85773 -2.04685 -4.32033
C	 0.738364052	 2.376935949	 0.573491176
H	 -0.281048311	 2.054312735	 0.770347516
H	 0.727466068	 3.210277008	 -0.125698571
H	 1.192284216	 2.730573515	 1.495919679
C	 1.605487059	 1.279174096	 0.000000000
O	 2.796542106	 1.446023796	 -0.241719716
N	 0.973051510	 0.105677200	 -0.240279361
H	 0.000000000	 -0.000000000	 0.000000000
C	 1.708694412	 -1.014609757	 -0.782554752
H	 2.241243610	 -0.715204023	 -1.682509862
H	 2.444910187	 -1.389621732	 -0.072565339
H	 1.008743710	 -1.809166558	 -1.024358950
O	 -1.827615156	 -0.000000000	 -0.957031317
H	 -2.738125379	 -0.280449855	 -0.840282340
C	 -1.748317900	 0.749759007	 -2.165212564
H	 -0.712393928	 1.056336775	 -2.273017006
H	 -2.024533938	 0.151840423	 -3.033474864
H	 -2.372170281	 1.642959120	 -2.131483813
