18
0  1  0  1  0  1  12   6  2.04117  2.91989  2.47328  1.59457  2.36284  1.90657  9.04289  9.02615  8.99743  2.53482 -22.53218 45.10600 -10.48116 -9.55784
C	 0.738364052	 2.376935949	 0.573491176
H	 -0.281048311	 2.054312735	 0.770347516
H	 0.727466068	 3.210277008	 -0.125698571
H	 1.192284216	 2.730573515	 1.495919679
C	 1.605487059	 1.279174096	 0.000000000
O	 2.796542106	 1.446023796	 -0.241719716
N	 0.973051510	 0.105677200	 -0.240279361
H	 0.000000000	 -0.000000000	 0.000000000
C	 1.708694412	 -1.014609757	 -0.782554752
H	 2.241243610	 -0.715204023	 -1.682509862
H	 2.444910187	 -1.389621732	 -0.072565339
H	 1.008743710	 -1.809166558	 -1.024358950
O	 -1.340830651	 -0.000000000	 0.705180970
H	 -1.694978182	 -0.280449855	 1.552080443
C	 -2.347497675	 0.749759007	 0.032416909
H	 -1.922897074	 1.056336775	 -0.918621788
H	 -3.237542903	 0.151840423	 -0.162504135
H	 -2.630213910	 1.642959120	 0.589553295
