18
0  1  0  1  0  1   6  12  4.95009  6.07460  5.38363  4.25911  5.23844  4.65918 14.68155 14.65951 14.62848  5.36636 -26.00848 55.37511 -11.67051 -12.32977
O	 0.123579089	 0.000000000	 0.000000000
H	 0.896132893	 0.122198548	 -0.556362692
C	 0.212384469	 0.917018939	 1.085964280
H	 -0.671166701	 0.760905947	 1.697287651
H	 1.094474394	 0.735876884	 1.699793470
H	 0.219068721	 1.952256745	 0.744828134
C	 -2.111652267	 2.376935949	 -0.573491176
H	 -1.092239904	 2.054312735	 -0.770347516
H	 -2.100754282	 3.210277008	 0.125698571
H	 -2.565572430	 2.730573515	 -1.495919679
C	 -2.978775273	 1.279174096	 0.000000000
O	 -4.169830321	 1.446023796	 0.241719716
N	 -2.346339725	 0.105677200	 0.240279361
H	 -1.373288214	 0.000000000	 0.000000000
C	 -3.081982626	 -1.014609757	 0.782554752
H	 -3.614531824	 -0.715204023	 1.682509862
H	 -3.818198402	 -1.389621732	 0.072565339
H	 -2.382031925	 -1.809166558	 1.024358950
