18
0  1  0  1  0  1   6  12 -6.17611 -5.77741 -5.89080 -6.28950 -5.96456 -6.16399 -2.63496 -2.64281 -2.67023 -5.85157 -9.32220 11.06866 -3.01611 -4.58191
O	 2.161854703	 0.252163619	 0.456667133
H	 2.882709511	 0.879463243	 0.547081945
C	 2.680938863	 -1.053202035	 0.690548923
H	 1.848367360	 -1.741989725	 0.584972354
H	 3.447077622	 -1.322194782	 -0.036331851
H	 3.089035906	 -1.154651233	 1.696183413
C	 -0.749283365	 -0.338908593	 2.503614313
H	 0.284377319	 -0.010457153	 2.428083095
H	 -0.782464551	 -1.341461234	 2.924600772
H	 -1.290769272	 0.317468448	 3.180326644
C	 -1.463998565	 -0.352732941	 1.171373121
O	 -2.649493021	 -0.650947594	 1.068658543
N	 -0.701620160	 -0.026764450	 0.100239342
H	 0.261220913	 0.240950511	 0.230611314
C	 -1.285316504	 -0.001761326	 -1.222239151
H	 -1.791583845	 -0.942211064	 -1.428198639
H	 -2.019938945	 0.796801969	 -1.318981849
H	 -0.494612578	 0.150160819	 -1.951230049
