18
0  1  0  1  0  1   6  12 -2.97433 -2.27971 -2.65100 -3.34562 -2.74782 -3.10456  2.77037  2.75665  2.73025 -2.42685 -17.71612 30.64096 -7.62499 -7.72669
O	 2.161854703	 0.252163619	 0.456667133
H	 2.882709511	 0.879463243	 0.547081945
C	 2.680938863	 -1.053202035	 0.690548923
H	 1.848367360	 -1.741989725	 0.584972354
H	 3.447077622	 -1.322194782	 -0.036331851
H	 3.089035906	 -1.154651233	 1.696183413
C	 -0.449183293	 -0.337138103	 2.539307337
H	 0.584477391	 -0.008686663	 2.463776119
H	 -0.482364479	 -1.339690744	 2.960293796
H	 -0.990669200	 0.319238938	 3.216019668
C	 -1.163898493	 -0.350962451	 1.207066145
O	 -2.349392949	 -0.649177104	 1.104351567
N	 -0.401520088	 -0.024993960	 0.135932366
H	 0.561320985	 0.242721001	 0.266304338
C	 -0.985216432	 0.000009164	 -1.186546127
H	 -1.491483773	 -0.940440574	 -1.392505615
H	 -1.719838873	 0.798572459	 -1.283288825
H	 -0.194512506	 0.151931309	 -1.915537025
