18
0  1  0  1  0  1  12   6 -5.11264 -4.93585 -4.95723 -5.13402 -4.99916 -5.08082 -3.44032 -3.44284 -3.45160 -5.05108 -4.67685  2.81626 -1.01868 -2.17181
C	 0.738364052	 2.376935949	 0.573491176
H	 -0.281048311	 2.054312735	 0.770347516
H	 0.727466068	 3.210277008	 -0.125698571
H	 1.192284216	 2.730573515	 1.495919679
C	 1.605487059	 1.279174096	 0.000000000
O	 2.796542106	 1.446023796	 -0.241719716
N	 0.973051510	 0.105677200	 -0.240279361
H	 0.000000000	 -0.000000000	 0.000000000
C	 1.708694412	 -1.014609757	 -0.782554752
H	 2.241243610	 -0.715204023	 -1.682509862
H	 2.444910187	 -1.389621732	 -0.072565339
H	 1.008743710	 -1.809166558	 -1.024358950
O	 -1.998882864	 -1.108141525	 -0.000000000
H	 -2.490986814	 -1.716093472	 0.556362692
C	 -2.837447251	 -0.726539771	 -1.085964280
H	 -2.260473849	 -0.039418508	 -1.697287651
H	 -3.121618592	 -1.581023082	 -1.699793470
H	 -3.737331616	 -0.214709600	 -0.744828134
