18
0  1  0  1  0  1   6  12 -5.73295 -5.49832 -5.50187 -5.73650 -5.54815 -5.66368 -3.69594 -3.69851 -3.71424 -5.58783 -6.23997  5.06830 -1.62760 -2.78857
O	 0.031782283	 0.000000000	 0.000000000
H	 0.523886232	 -0.607951946	 -0.556362692
C	 0.870346670	 0.381601754	 1.085964280
H	 0.293373268	 1.068723017	 1.697287651
H	 1.154518011	 -0.472881557	 1.699793470
H	 1.770231035	 0.893431925	 0.744828134
C	 -2.855496079	 2.376935949	 -0.573491176
H	 -1.836083716	 2.054312735	 -0.770347516
H	 -2.844598094	 3.210277008	 0.125698571
H	 -3.309416242	 2.730573515	 -1.495919679
C	 -3.722619085	 1.279174096	 0.000000000
O	 -4.913674133	 1.446023796	 0.241719716
N	 -3.090183537	 0.105677200	 0.240279361
H	 -2.117132026	 0.000000000	 0.000000000
C	 -3.825826438	 -1.014609757	 0.782554752
H	 -4.358375636	 -0.715204023	 1.682509862
H	 -4.562042214	 -1.389621732	 0.072565339
H	 -3.125875737	 -1.809166558	 1.024358950
