18
0  1  0  1  0  1  12   6  4.40576  5.29865  4.69026  3.79736  4.59877  4.12167 11.04088 11.02528 10.99260  4.69039 -25.06243 51.53718 -12.34788 -9.43648
C	 0.738364052	 2.376935949	 0.573491176
H	 -0.281048311	 2.054312735	 0.770347516
H	 0.727466068	 3.210277008	 -0.125698571
H	 1.192284216	 2.730573515	 1.495919679
C	 1.605487059	 1.279174096	 0.000000000
O	 2.796542106	 1.446023796	 -0.241719716
N	 0.973051510	 0.105677200	 -0.240279361
H	 0.000000000	 -0.000000000	 0.000000000
C	 1.708694412	 -1.014609757	 -0.782554752
H	 2.241243610	 -0.715204023	 -1.682509862
H	 2.444910187	 -1.389621732	 -0.072565339
H	 1.008743710	 -1.809166558	 -1.024358950
O	 -1.272016368	 -0.705180970	 -0.000000000
H	 -1.764120318	 -1.313132917	 0.556362692
C	 -2.110580755	 -0.323579216	 -1.085964280
H	 -1.533607353	 0.363542047	 -1.697287651
H	 -2.394752096	 -1.178062527	 -1.699793470
H	 -3.010465120	 0.188250955	 -0.744828134
