19
0  1  0  1  0  1   7  12 -4.47699 -4.20910 -4.24343 -4.51132 -4.33511 -4.43780 -1.23806 -1.25157 -1.25350 -4.32603 -4.26245  4.57750 -1.09097 -3.55010
N	 0.360273470	 0.000000000	 0.000000000
H	 1.154543956	 0.433293616	 -0.454068070
H	 0.674159426	 -0.925562148	 0.263862769
C	 0.012602949	 0.758704339	 1.207136770
H	 -0.832667592	 0.280123616	 1.695946542
H	 0.821460931	 0.852342946	 1.934447260
H	 -0.304513153	 1.758503979	 0.919958262
C	 -3.101091050	 2.331430100	 -0.527671467
H	 -2.081023585	 2.068475850	 -0.797719112
H	 -3.085373808	 3.110767245	 0.231459516
H	 -3.614569167	 2.732021573	 -1.397941452
C	 -3.892265702	 1.155250465	 0.000000000
O	 -5.090627240	 1.239269291	 0.252588752
N	 -3.186371934	 0.014805810	 0.173953876
H	 -2.187025663	 0.000000000	 0.000000000
C	 -3.841153278	 -1.160436520	 0.701589434
H	 -4.724756309	 -1.398765195	 0.113456045
H	 -3.147469720	 -1.995887118	 0.660896928
H	 -4.162195857	 -1.011715118	 1.732360661
