19
0  1  0  1  0  1  12   7 -6.56929 -6.21589 -6.35277 -6.70618 -6.43122 -6.59354 -2.91713 -2.92704 -2.93501 -6.55200 -10.58789 11.80308 -3.34169 -4.42550
C	 0.914065387	 2.331430100	 0.527671467
H	 -0.106002078	 2.068475850	 0.797719112
H	 0.898348145	 3.110767245	 -0.231459516
H	 1.427543504	 2.732021573	 1.397941452
C	 1.705240039	 1.155250465	 0.000000000
O	 2.903601577	 1.239269291	 -0.252588752
N	 0.999346271	 0.014805810	 -0.173953876
H	 0.000000000	 0.000000000	 -0.000000000
C	 1.654127614	 -1.160436520	 -0.701589434
H	 2.537730646	 -1.398765195	 -0.113456045
H	 0.960444057	 -1.995887118	 -0.660896928
H	 1.975170194	 -1.011715118	 -1.732360661
N	 -1.834079842	 -0.981219709	 -0.000000000
H	 -2.449812272	 -0.836388622	 0.790369727
H	 -1.720969165	 -1.984662340	 -0.071568883
C	 -2.475384675	 -0.475400918	 -1.219246369
H	 -1.813802248	 -0.646053544	 -2.065203320
H	 -3.443782146	 -0.926380909	 -1.444686739
H	 -2.613095478	 0.599560895	 -1.129100537
