19
0  1  0  1  0  1  12   7 -6.47352 -6.16309 -6.20186 -6.51229 -6.29041 -6.42296 -3.12487 -3.13729 -3.14742 -6.44674 -8.21075  8.11815 -2.40975 -3.94440
C	 0.914065387	 2.331430100	 0.527671467
H	 -0.106002078	 2.068475850	 0.797719112
H	 0.898348145	 3.110767245	 -0.231459516
H	 1.427543504	 2.732021573	 1.397941452
C	 1.705240039	 1.155250465	 0.000000000
O	 2.903601577	 1.239269291	 -0.252588752
N	 0.999346271	 0.014805810	 -0.173953876
H	 0.000000000	 0.000000000	 -0.000000000
C	 1.654127614	 -1.160436520	 -0.701589434
H	 2.537730646	 -1.398765195	 -0.113456045
H	 0.960444057	 -1.995887118	 -0.660896928
H	 1.975170194	 -1.011715118	 -1.732360661
N	 -1.983720512	 -0.000000000	 1.032862852
H	 -1.987621271	 0.433293616	 1.947755305
H	 -2.369175351	 -0.925562148	 1.172764679
C	 -2.855296360	 0.758704339	 0.128202964
H	 -2.855982770	 0.280123616	 -0.848227684
H	 -3.889594713	 0.852342946	 0.465039280
H	 -2.448034427	 1.758503979	 -0.002838382
