19
0  1  0  1  0  1   7  12 -4.56900 -4.16697 -4.27325 -4.67528 -4.38550 -4.55535  0.06035  0.04274  0.03724 -4.28648 -6.59031  9.38600 -1.96769 -5.11448
N	 0.360273470	 0.000000000	 0.000000000
H	 1.154543956	 0.433293616	 -0.454068070
H	 0.674159426	 -0.925562148	 0.263862769
C	 0.012602949	 0.758704339	 1.207136770
H	 -0.832667592	 0.280123616	 1.695946542
H	 0.821460931	 0.852342946	 1.934447260
H	 -0.304513153	 1.758503979	 0.919958262
C	 -2.858491132	 2.331430100	 -0.527671467
H	 -1.838423667	 2.068475850	 -0.797719112
H	 -2.842773890	 3.110767245	 0.231459516
H	 -3.371969249	 2.732021573	 -1.397941452
C	 -3.649665784	 1.155250465	 0.000000000
O	 -4.848027322	 1.239269291	 0.252588752
N	 -2.943772016	 0.014805810	 0.173953876
H	 -1.944425745	 0.000000000	 0.000000000
C	 -3.598553360	 -1.160436520	 0.701589434
H	 -4.482156391	 -1.398765195	 0.113456045
H	 -2.904869802	 -1.995887118	 0.660896928
H	 -3.919595939	 -1.011715118	 1.732360661
