19
0  1  0  1  0  1  12   7  1.95629  2.95465  2.23795  1.23958  2.10683  1.59381 10.76847 10.75488 10.72729  1.06962 -31.06554 58.23127 -14.63177 -11.46434
C	 0.914065387	 2.331430100	 0.527671467
H	 -0.106002078	 2.068475850	 0.797719112
H	 0.898348145	 3.110767245	 -0.231459516
H	 1.427543504	 2.732021573	 1.397941452
C	 1.705240039	 1.155250465	 0.000000000
O	 2.903601577	 1.239269291	 -0.252588752
N	 0.999346271	 0.014805810	 -0.173953876
H	 0.000000000	 0.000000000	 -0.000000000
C	 1.654127614	 -1.160436520	 -0.701589434
H	 2.537730646	 -1.398765195	 -0.113456045
H	 0.960444057	 -1.995887118	 -0.660896928
H	 1.975170194	 -1.011715118	 -1.732360661
N	 -1.388604358	 -0.000000000	 0.723003996
H	 -1.392505117	 0.433293616	 1.637896449
H	 -1.774059197	 -0.925562148	 0.862905823
C	 -2.260180206	 0.758704339	 -0.181655892
H	 -2.260866616	 0.280123616	 -1.158086540
H	 -3.294478559	 0.852342946	 0.155180424
H	 -1.852918273	 1.758503979	 -0.312697238
