19
0  1  0  1  0  1   7  12 -5.82124 -5.38388 -5.55309 -5.99045 -5.63922 -5.84546 -1.35558 -1.36576 -1.37332 -5.76681 -13.51208 18.35420 -5.13787 -5.47106
N	 0.068041445	 0.000000000	 0.000000000
H	 0.071942204	 0.433293616	 -0.914892453
H	 0.453496284	 -0.925562148	 -0.139901827
C	 0.939617293	 0.758704339	 0.904659888
H	 0.940303703	 0.280123616	 1.881090536
H	 1.973915645	 0.852342946	 0.567823573
H	 0.532355359	 1.758503979	 1.035701234
C	 -2.766414376	 2.331430100	 -0.527671467
H	 -1.746346911	 2.068475850	 -0.797719112
H	 -2.750697134	 3.110767245	 0.231459516
H	 -3.279892493	 2.732021573	 -1.397941452
C	 -3.557589028	 1.155250465	 0.000000000
O	 -4.755950566	 1.239269291	 0.252588752
N	 -2.851695260	 0.014805810	 0.173953876
H	 -1.852348989	 0.000000000	 0.000000000
C	 -3.506476604	 -1.160436520	 0.701589434
H	 -4.390079635	 -1.398765195	 0.113456045
H	 -2.812793046	 -1.995887118	 0.660896928
H	 -3.827519183	 -1.011715118	 1.732360661
