19
0  1  0  1  0  1   7  12 -2.36956 -1.57270 -2.15004 -2.94690 -2.29425 -2.67170  6.07613  6.05983  6.05951 -2.06602 -17.99888 33.17716 -7.49022 -9.75408
N	 0.149333861	 0.000000000	 0.000000000
H	 0.331772675	 0.605655470	 -0.790369727
H	 0.961785332	 -0.599678035	 0.071568883
C	 0.031934355	 0.808295673	 1.219246369
H	 -0.151067349	 0.150022171	 2.065203320
H	 0.906693218	 1.421462487	 1.444686739
H	 -0.830154483	 1.465037632	 1.129100537
C	 -2.536779178	 2.331430100	 -0.527671467
H	 -1.516711713	 2.068475850	 -0.797719112
H	 -2.521061936	 3.110767245	 0.231459516
H	 -3.050257295	 2.732021573	 -1.397941452
C	 -3.327953830	 1.155250465	 0.000000000
O	 -4.526315368	 1.239269291	 0.252588752
N	 -2.622060062	 0.014805810	 0.173953876
H	 -1.622713791	 0.000000000	 0.000000000
C	 -3.276841406	 -1.160436520	 0.701589434
H	 -4.160444437	 -1.398765195	 0.113456045
H	 -2.583157848	 -1.995887118	 0.660896928
H	 -3.597883985	 -1.011715118	 1.732360661
