19
0  1  0  1  0  1  12   7 -6.25407 -5.99811 -6.08544 -6.34140 -6.15797 -6.26711 -3.14486 -3.15124 -3.15857 -6.30329 -7.01948  6.07656 -1.74418 -3.61618
C	 0.914065387	 2.331430100	 0.527671467
H	 -0.106002078	 2.068475850	 0.797719112
H	 0.898348145	 3.110767245	 -0.231459516
H	 1.427543504	 2.732021573	 1.397941452
C	 1.705240039	 1.155250465	 0.000000000
O	 2.903601577	 1.239269291	 -0.252588752
N	 0.999346271	 0.014805810	 -0.173953876
H	 0.000000000	 0.000000000	 -0.000000000
C	 1.654127614	 -1.160436520	 -0.701589434
H	 2.537730646	 -1.398765195	 -0.113456045
H	 0.960444057	 -1.995887118	 -0.660896928
H	 1.975170194	 -1.011715118	 -1.732360661
N	 -2.084390968	 -0.000000000	 -1.084505995
H	 -2.878661454	 0.433293616	 -0.630437925
H	 -2.398276924	 -0.925562148	 -1.348368764
C	 -1.736720447	 0.758704339	 -2.291642765
H	 -0.891449906	 0.280123616	 -2.780452537
H	 -2.545578430	 0.852342946	 -3.018953255
H	 -1.419604346	 1.758503979	 -2.004464258
