19
0  1  0  1  0  1   7  12 -6.14850 -5.88578 -5.91410 -6.17682 -5.98396 -6.09919 -3.42981 -3.43993 -3.44876 -6.08681 -7.48922  7.03709 -2.25895 -3.37572
N	 0.054270237	 0.000000000	 0.000000000
H	 0.670002667	 0.144831087	 -0.790369727
H	 -0.058840440	 -1.003442631	 0.071568883
C	 0.695575070	 0.505818791	 1.219246369
H	 0.033992643	 0.335166165	 2.065203320
H	 1.663972540	 0.054838800	 1.444686739
H	 0.833285872	 1.580780604	 1.129100537
C	 -3.085790888	 2.331430100	 -0.527671467
H	 -2.065723423	 2.068475850	 -0.797719112
H	 -3.070073646	 3.110767245	 0.231459516
H	 -3.599269005	 2.732021573	 -1.397941452
C	 -3.876965540	 1.155250465	 0.000000000
O	 -5.075327078	 1.239269291	 0.252588752
N	 -3.171071772	 0.014805810	 0.173953876
H	 -2.171725501	 0.000000000	 0.000000000
C	 -3.825853116	 -1.160436520	 0.701589434
H	 -4.709456147	 -1.398765195	 0.113456045
H	 -3.132169558	 -1.995887118	 0.660896928
H	 -4.146895695	 -1.011715118	 1.732360661
