19
0  1  0  1  0  1   7  12 -7.00167 -6.73872 -6.80633 -7.06928 -6.88306 -6.99395 -4.08894 -4.10211 -4.10976 -6.98493 -7.71536  6.32750 -2.15069 -3.44639
N	 2.255356546	 0.255483283	 0.283183834
H	 2.659022871	 0.795402811	 1.038383924
H	 2.673360419	 0.622864532	 -0.562462087
C	 2.627659385	 -1.155699531	 0.436936583
H	 2.201371985	 -1.726732116	 -0.384438867
H	 3.703058027	 -1.342388980	 0.462719980
H	 2.193186812	 -1.540106543	 1.356772584
C	 -0.984697826	 -0.474298180	 2.482361759
H	 0.018620135	 -0.061930475	 2.405457630
H	 -0.928604432	 -1.498069334	 2.846558716
H	 -1.558032062	 0.099839388	 3.205657728
C	 -1.726627081	 -0.467605223	 1.164299080
O	 -2.906959703	 -0.794563270	 1.081570896
N	 -0.998078097	 -0.080618022	 0.092563451
H	 -0.012012837	 0.134730366	 0.194898719
C	 -1.603922832	 -0.067059986	 -1.219343848
H	 -2.521052502	 0.517913672	 -1.207735834
H	 -0.904928705	 0.376283766	 -1.923392133
H	 -1.859106811	 -1.072506486	 -1.553460874
