19
0  1  0  1  0  1  12   7 -4.01337 -3.31671 -3.62495 -4.32160 -3.76638 -4.09503  3.71316  3.69750  3.67933 -3.73150 -16.00544 26.20447 -5.12861 -8.80193
C	 0.914065387	 2.331430100	 0.527671467
H	 -0.106002078	 2.068475850	 0.797719112
H	 0.898348145	 3.110767245	 -0.231459516
H	 1.427543504	 2.732021573	 1.397941452
C	 1.705240039	 1.155250465	 0.000000000
O	 2.903601577	 1.239269291	 -0.252588752
N	 0.999346271	 0.014805810	 -0.173953876
H	 0.000000000	 0.000000000	 -0.000000000
C	 1.654127614	 -1.160436520	 -0.701589434
H	 2.537730646	 -1.398765195	 -0.113456045
H	 0.960444057	 -1.995887118	 -0.660896928
H	 1.975170194	 -1.011715118	 -1.732360661
N	 -1.826828779	 0.826290282	 -0.000000000
H	 -2.009267593	 1.431945752	 0.790369727
H	 -2.639280250	 0.226612247	 -0.071568883
C	 -1.709429273	 1.634585955	 -1.219246369
H	 -1.526427569	 0.976312453	 -2.065203320
H	 -2.584188137	 2.247752770	 -1.444686739
H	 -0.847340436	 2.291327915	 -1.129100537
