19
0  1  0  1  0  1  12   7  3.65134  4.65331  3.81642  2.81446  3.70549  3.17761 11.98681 11.97479 11.94456  2.41516 -33.13066 62.41362 -15.60532 -11.26248
C	 0.914065387	 2.331430100	 0.527671467
H	 -0.106002078	 2.068475850	 0.797719112
H	 0.898348145	 3.110767245	 -0.231459516
H	 1.427543504	 2.732021573	 1.397941452
C	 1.705240039	 1.155250465	 0.000000000
O	 2.903601577	 1.239269291	 -0.252588752
N	 0.999346271	 0.014805810	 -0.173953876
H	 0.000000000	 0.000000000	 -0.000000000
C	 1.654127614	 -1.160436520	 -0.701589434
H	 2.537730646	 -1.398765195	 -0.113456045
H	 0.960444057	 -1.995887118	 -0.660896928
H	 1.975170194	 -1.011715118	 -1.732360661
N	 -1.351427252	 -0.723003996	 -0.000000000
H	 -1.967159682	 -0.578172909	 0.790369727
H	 -1.238316575	 -1.726446627	 -0.071568883
C	 -1.992732085	 -0.217185205	 -1.219246369
H	 -1.331149658	 -0.387837831	 -2.065203320
H	 -2.961129556	 -0.668165196	 -1.444686739
H	 -2.130442888	 0.857776608	 -1.129100537
