19
0  1  0  1  0  1   7  12 -6.91733 -6.37476 -6.69016 -7.23272 -6.79428 -7.05101 -1.50265 -1.51822 -1.52592 -6.86912 -16.30480 22.40620 -6.30832 -6.66219
N	 2.255356546	 0.255483283	 0.283183834
H	 2.659022871	 0.795402811	 1.038383924
H	 2.673360419	 0.622864532	 -0.562462087
C	 2.627659385	 -1.155699531	 0.436936583
H	 2.201371985	 -1.726732116	 -0.384438867
H	 3.703058027	 -1.342388980	 0.462719980
H	 2.193186812	 -1.540106543	 1.356772584
C	 -0.572448848	 -0.452343104	 2.498413598
H	 0.430869113	 -0.039975399	 2.421509470
H	 -0.516355454	 -1.476114258	 2.862610555
H	 -1.145783084	 0.121794464	 3.221709568
C	 -1.314378103	 -0.445650147	 1.180350920
O	 -2.494710725	 -0.772608194	 1.097622736
N	 -0.585829119	 -0.058662946	 0.108615291
H	 0.400236141	 0.156685442	 0.210950558
C	 -1.191673854	 -0.045104910	 -1.203292008
H	 -2.108803524	 0.539868748	 -1.191683994
H	 -0.492679727	 0.398238842	 -1.907340293
H	 -1.446857833	 -1.050551410	 -1.537409034
