19
0  1  0  1  0  1   7  12 -6.24703 -5.88748 -5.98956 -6.34911 -6.06864 -6.23457 -2.45118 -2.46110 -2.47007 -6.18041 -11.00508 13.27583 -3.86165 -4.58950
N	 0.068041445	 0.000000000	 0.000000000
H	 0.071942204	 0.433293616	 -0.914892453
H	 0.453496284	 -0.925562148	 -0.139901827
C	 0.939617293	 0.758704339	 0.904659888
H	 0.940303703	 0.280123616	 1.881090536
H	 1.973915645	 0.852342946	 0.567823573
H	 0.532355359	 1.758503979	 1.035701234
C	 -2.873102734	 2.331430100	 -0.527671467
H	 -1.853035269	 2.068475850	 -0.797719112
H	 -2.857385492	 3.110767245	 0.231459516
H	 -3.386580851	 2.732021573	 -1.397941452
C	 -3.664277386	 1.155250465	 0.000000000
O	 -4.862638924	 1.239269291	 0.252588752
N	 -2.958383618	 0.014805810	 0.173953876
H	 -1.959037347	 0.000000000	 0.000000000
C	 -3.613164962	 -1.160436520	 0.701589434
H	 -4.496767993	 -1.398765195	 0.113456045
H	 -2.919481404	 -1.995887118	 0.660896928
H	 -3.934207541	 -1.011715118	 1.732360661
