19
0  1  0  1  0  1   7  12  5.10945  6.29545  5.23064  4.04465  5.09522  4.47010 15.00954 14.99359 14.95149  3.27089 -39.33045 77.08912 -20.87626 -13.61153
N	 2.255356546	 0.255483283	 0.283183834
H	 2.659022871	 0.795402811	 1.038383924
H	 2.673360419	 0.622864532	 -0.562462087
C	 2.627659385	 -1.155699531	 0.436936583
H	 2.201371985	 -1.726732116	 -0.384438867
H	 3.703058027	 -1.342388980	 0.462719980
H	 2.193186812	 -1.540106543	 1.356772584
C	 -0.160199869	 -0.430388028	 2.514465437
H	 0.843118092	 -0.018020323	 2.437561308
H	 -0.104106475	 -1.454159182	 2.878662394
H	 -0.733534105	 0.143749540	 3.237761406
C	 -0.902129124	 -0.423695071	 1.196402759
O	 -2.082461746	 -0.750653118	 1.113674575
N	 -0.173580140	 -0.036707870	 0.124667130
H	 0.812485120	 0.178640518	 0.227002398
C	 -0.779424875	 -0.023149834	 -1.187240169
H	 -1.696554545	 0.561823824	 -1.175632155
H	 -0.080430748	 0.420193918	 -1.891288454
H	 -1.034608854	 -1.028596334	 -1.521357196
