19
0  1  0  1  0  1   7  12 -2.98757 -2.30476 -2.72506 -3.40787 -2.82731 -3.16899  3.16174  3.15155  3.13723 -3.15303 -20.86873 35.15151 -9.36829 -8.06752
N	 0.054270237	 0.000000000	 0.000000000
H	 0.670002667	 0.144831087	 -0.790369727
H	 -0.058840440	 -1.003442631	 0.071568883
C	 0.695575070	 0.505818791	 1.219246369
H	 0.033992643	 0.335166165	 2.065203320
H	 1.663972540	 0.054838800	 1.444686739
H	 0.833285872	 1.580780604	 1.129100537
C	 -2.555791903	 2.331430100	 -0.527671467
H	 -1.535724438	 2.068475850	 -0.797719112
H	 -2.540074661	 3.110767245	 0.231459516
H	 -3.069270020	 2.732021573	 -1.397941452
C	 -3.346966555	 1.155250465	 0.000000000
O	 -4.545328093	 1.239269291	 0.252588752
N	 -2.641072787	 0.014805810	 0.173953876
H	 -1.641726516	 0.000000000	 0.000000000
C	 -3.295854131	 -1.160436520	 0.701589434
H	 -4.179457162	 -1.398765195	 0.113456045
H	 -2.602170573	 -1.995887118	 0.660896928
H	 -3.616896710	 -1.011715118	 1.732360661
