19
0  1  0  1  0  1  12   7 -6.53276 -6.24235 -6.33059 -6.62099 -6.40279 -6.53206 -3.43819 -3.44765 -3.45504 -6.53555 -8.70528  8.40883 -2.52481 -3.71429
C	 0.914065387	 2.331430100	 0.527671467
H	 -0.106002078	 2.068475850	 0.797719112
H	 0.898348145	 3.110767245	 -0.231459516
H	 1.427543504	 2.732021573	 1.397941452
C	 1.705240039	 1.155250465	 0.000000000
O	 2.903601577	 1.239269291	 -0.252588752
N	 0.999346271	 0.014805810	 -0.173953876
H	 0.000000000	 0.000000000	 -0.000000000
C	 1.654127614	 -1.160436520	 -0.701589434
H	 2.537730646	 -1.398765195	 -0.113456045
H	 0.960444057	 -1.995887118	 -0.660896928
H	 1.975170194	 -1.011715118	 -1.732360661
N	 -1.930610360	 -1.032862852	 -0.000000000
H	 -2.546342790	 -0.888031765	 0.790369727
H	 -1.817499683	 -2.036305483	 -0.071568883
C	 -2.571915193	 -0.527044061	 -1.219246369
H	 -1.910332766	 -0.697696687	 -2.065203320
H	 -3.540312664	 -0.978024052	 -1.444686739
H	 -2.709625996	 0.547917752	 -1.129100537
