19
0  1  0  1  0  1  12   7 -5.70506 -5.31154 -5.38355 -5.77707 -5.49778 -5.66425 -1.04554 -1.05701 -1.06887 -5.59809 -8.26608 10.03094 -2.14020 -5.22275
C	 0.914065387	 2.331430100	 0.527671467
H	 -0.106002078	 2.068475850	 0.797719112
H	 0.898348145	 3.110767245	 -0.231459516
H	 1.427543504	 2.732021573	 1.397941452
C	 1.705240039	 1.155250465	 0.000000000
O	 2.903601577	 1.239269291	 -0.252588752
N	 0.999346271	 0.014805810	 -0.173953876
H	 0.000000000	 0.000000000	 -0.000000000
C	 1.654127614	 -1.160436520	 -0.701589434
H	 2.537730646	 -1.398765195	 -0.113456045
H	 0.960444057	 -1.995887118	 -0.660896928
H	 1.975170194	 -1.011715118	 -1.732360661
N	 -2.169359175	 0.981219709	 -0.000000000
H	 -2.351797989	 1.586875179	 0.790369727
H	 -2.981810646	 0.381541674	 -0.071568883
C	 -2.051959669	 1.789515382	 -1.219246369
H	 -1.868957965	 1.131241880	 -2.065203320
H	 -2.926718533	 2.402682197	 -1.444686739
H	 -1.189870832	 2.446257342	 -1.129100537
