19
0  1  0  1  0  1  12   7 -5.60047 -5.27497 -5.31274 -5.63824 -5.41745 -5.54863 -1.67731 -1.68749 -1.69587 -5.54553 -6.78061  7.25884 -1.62996 -4.39379
C	 0.914065387	 2.331430100	 0.527671467
H	 -0.106002078	 2.068475850	 0.797719112
H	 0.898348145	 3.110767245	 -0.231459516
H	 1.427543504	 2.732021573	 1.397941452
C	 1.705240039	 1.155250465	 0.000000000
O	 2.903601577	 1.239269291	 -0.252588752
N	 0.999346271	 0.014805810	 -0.173953876
H	 0.000000000	 0.000000000	 -0.000000000
C	 1.654127614	 -1.160436520	 -0.701589434
H	 2.537730646	 -1.398765195	 -0.113456045
H	 0.960444057	 -1.995887118	 -0.660896928
H	 1.975170194	 -1.011715118	 -1.732360661
N	 -2.283535974	 1.032862852	 -0.000000000
H	 -2.465974788	 1.638518322	 0.790369727
H	 -3.095987445	 0.433184817	 -0.071568883
C	 -2.166136468	 1.841158525	 -1.219246369
H	 -1.983134764	 1.182885023	 -2.065203320
H	 -3.040895332	 2.454325340	 -1.444686739
H	 -1.304047631	 2.497900485	 -1.129100537
