19
0  1  0  1  0  1  12   7 -6.31070 -5.83710 -6.10567 -6.57927 -6.20408 -6.42606 -1.06925 -1.07889 -1.09092 -6.29226 -13.13481 17.12574 -4.10029 -6.18289
C	 0.914065387	 2.331430100	 0.527671467
H	 -0.106002078	 2.068475850	 0.797719112
H	 0.898348145	 3.110767245	 -0.231459516
H	 1.427543504	 2.732021573	 1.397941452
C	 1.705240039	 1.155250465	 0.000000000
O	 2.903601577	 1.239269291	 -0.252588752
N	 0.999346271	 0.014805810	 -0.173953876
H	 0.000000000	 0.000000000	 -0.000000000
C	 1.654127614	 -1.160436520	 -0.701589434
H	 2.537730646	 -1.398765195	 -0.113456045
H	 0.960444057	 -1.995887118	 -0.660896928
H	 1.975170194	 -1.011715118	 -1.732360661
N	 -1.786620829	 -0.000000000	 -0.929576567
H	 -2.580891315	 0.433293616	 -0.475508497
H	 -2.100506786	 -0.925562148	 -1.193439336
C	 -1.438950308	 0.758704339	 -2.136713337
H	 -0.593679767	 0.280123616	 -2.625523109
H	 -2.247808292	 0.852342946	 -2.864023827
H	 -1.121834207	 1.758503979	 -1.849534830
