19
0  1  0  1  0  1   7  12 -5.62519 -5.17398 -5.37768 -5.82890 -5.49577 -5.69136 -0.37039 -0.38733 -0.39444 -5.34669 -8.96993 12.44043 -3.01704 -5.80015
N	 0.149333861	 0.000000000	 0.000000000
H	 0.331772675	 0.605655470	 -0.790369727
H	 0.961785332	 -0.599678035	 0.071568883
C	 0.031934355	 0.808295673	 1.219246369
H	 -0.151067349	 0.150022171	 2.065203320
H	 0.906693218	 1.421462487	 1.444686739
H	 -0.830154483	 1.465037632	 1.129100537
C	 -2.869038113	 2.331430100	 -0.527671467
H	 -1.848970648	 2.068475850	 -0.797719112
H	 -2.853320871	 3.110767245	 0.231459516
H	 -3.382516230	 2.732021573	 -1.397941452
C	 -3.660212765	 1.155250465	 0.000000000
O	 -4.858574303	 1.239269291	 0.252588752
N	 -2.954318997	 0.014805810	 0.173953876
H	 -1.954972726	 0.000000000	 0.000000000
C	 -3.609100341	 -1.160436520	 0.701589434
H	 -4.492703372	 -1.398765195	 0.113456045
H	 -2.915416783	 -1.995887118	 0.660896928
H	 -3.930142920	 -1.011715118	 1.732360661
