19
0  1  0  1  0  1  12   7 -6.26689 -5.83613 -6.04286 -6.47362 -6.12773 -6.33069 -1.95713 -1.96750 -1.97460 -6.25266 -13.03695 16.53986 -4.46539 -5.29017
C	 0.914065387	 2.331430100	 0.527671467
H	 -0.106002078	 2.068475850	 0.797719112
H	 0.898348145	 3.110767245	 -0.231459516
H	 1.427543504	 2.732021573	 1.397941452
C	 1.705240039	 1.155250465	 0.000000000
O	 2.903601577	 1.239269291	 -0.252588752
N	 0.999346271	 0.014805810	 -0.173953876
H	 0.000000000	 0.000000000	 -0.000000000
C	 1.654127614	 -1.160436520	 -0.701589434
H	 2.537730646	 -1.398765195	 -0.113456045
H	 0.960444057	 -1.995887118	 -0.660896928
H	 1.975170194	 -1.011715118	 -1.732360661
N	 -1.737549324	 -0.929576567	 -0.000000000
H	 -2.353281754	 -0.784745480	 0.790369727
H	 -1.624438647	 -1.933019198	 -0.071568883
C	 -2.378854157	 -0.423757776	 -1.219246369
H	 -1.717271730	 -0.594410402	 -2.065203320
H	 -3.347251628	 -0.874737767	 -1.444686739
H	 -2.516564960	 0.651204037	 -1.129100537
