19
0  1  0  1  0  1  12   7 -5.92731 -5.73072 -5.76484 -5.96143 -5.82506 -5.90548 -3.70574 -3.71418 -3.71793 -5.97669 -6.10769  4.25145 -1.48367 -2.63678
C	 0.914065387	 2.331430100	 0.527671467
H	 -0.106002078	 2.068475850	 0.797719112
H	 0.898348145	 3.110767245	 -0.231459516
H	 1.427543504	 2.732021573	 1.397941452
C	 1.705240039	 1.155250465	 0.000000000
O	 2.903601577	 1.239269291	 -0.252588752
N	 0.999346271	 0.014805810	 -0.173953876
H	 0.000000000	 0.000000000	 -0.000000000
C	 1.654127614	 -1.160436520	 -0.701589434
H	 2.537730646	 -1.398765195	 -0.113456045
H	 0.960444057	 -1.995887118	 -0.660896928
H	 1.975170194	 -1.011715118	 -1.732360661
N	 -2.123671396	 -1.136149137	 -0.000000000
H	 -2.739403826	 -0.991318050	 0.790369727
H	 -2.010560719	 -2.139591768	 -0.071568883
C	 -2.764976229	 -0.630330346	 -1.219246369
H	 -2.103393802	 -0.800982972	 -2.065203320
H	 -3.733373700	 -1.081310337	 -1.444686739
H	 -2.902687032	 0.444631467	 -1.129100537
