19
0  1  0  1  0  1   7  12 -1.76571 -1.02292 -1.42471 -2.16750 -1.56739 -1.91706  6.08703  6.06663  6.06016 -1.26495 -14.00713 26.74058 -5.07535 -8.92305
N	 0.360273470	 0.000000000	 0.000000000
H	 1.154543956	 0.433293616	 -0.454068070
H	 0.674159426	 -0.925562148	 0.263862769
C	 0.012602949	 0.758704339	 1.207136770
H	 -0.832667592	 0.280123616	 1.695946542
H	 0.821460931	 0.852342946	 1.934447260
H	 -0.304513153	 1.758503979	 0.919958262
C	 -2.494591256	 2.331430100	 -0.527671467
H	 -1.474523791	 2.068475850	 -0.797719112
H	 -2.478874014	 3.110767245	 0.231459516
H	 -3.008069373	 2.732021573	 -1.397941452
C	 -3.285765908	 1.155250465	 0.000000000
O	 -4.484127446	 1.239269291	 0.252588752
N	 -2.579872140	 0.014805810	 0.173953876
H	 -1.580525869	 0.000000000	 0.000000000
C	 -3.234653484	 -1.160436520	 0.701589434
H	 -4.118256515	 -1.398765195	 0.113456045
H	 -2.540969926	 -1.995887118	 0.660896928
H	 -3.555696063	 -1.011715118	 1.732360661
