19
0  1  0  1  0  1  12   7 -6.19352 -5.93554 -5.94876 -6.20674 -6.03073 -6.13557 -3.35276 -3.36471 -3.37202 -6.19647 -6.83907  5.82340 -1.84442 -3.33638
C	 0.914065387	 2.331430100	 0.527671467
H	 -0.106002078	 2.068475850	 0.797719112
H	 0.898348145	 3.110767245	 -0.231459516
H	 1.427543504	 2.732021573	 1.397941452
C	 1.705240039	 1.155250465	 0.000000000
O	 2.903601577	 1.239269291	 -0.252588752
N	 0.999346271	 0.014805810	 -0.173953876
H	 0.000000000	 0.000000000	 -0.000000000
C	 1.654127614	 -1.160436520	 -0.701589434
H	 2.537730646	 -1.398765195	 -0.113456045
H	 0.960444057	 -1.995887118	 -0.660896928
H	 1.975170194	 -1.011715118	 -1.732360661
N	 -2.082906538	 -0.000000000	 1.084505995
H	 -2.086807297	 0.433293616	 1.999398448
H	 -2.468361377	 -0.925562148	 1.224407822
C	 -2.954482386	 0.758704339	 0.179846107
H	 -2.955168796	 0.280123616	 -0.796584541
H	 -3.988780739	 0.852342946	 0.516682423
H	 -2.547220453	 1.758503979	 0.048804761
