19
0  1  0  1  0  1  12   7 -3.79438 -3.14426 -3.58074 -4.23087 -3.67858 -4.00085  2.20702  2.19577  2.18872 -3.99608 -20.43724 32.28606 -8.19940 -7.64550
C	 0.914065387	 2.331430100	 0.527671467
H	 -0.106002078	 2.068475850	 0.797719112
H	 0.898348145	 3.110767245	 -0.231459516
H	 1.427543504	 2.732021573	 1.397941452
C	 1.705240039	 1.155250465	 0.000000000
O	 2.903601577	 1.239269291	 -0.252588752
N	 0.999346271	 0.014805810	 -0.173953876
H	 0.000000000	 0.000000000	 -0.000000000
C	 1.654127614	 -1.160436520	 -0.701589434
H	 2.537730646	 -1.398765195	 -0.113456045
H	 0.960444057	 -1.995887118	 -0.660896928
H	 1.975170194	 -1.011715118	 -1.732360661
N	 -1.544488288	 -0.826290282	 -0.000000000
H	 -2.160220718	 -0.681459195	 0.790369727
H	 -1.431377611	 -1.829732913	 -0.071568883
C	 -2.185793121	 -0.320471491	 -1.219246369
H	 -1.524210694	 -0.491124117	 -2.065203320
H	 -3.154190592	 -0.771451482	 -1.444686739
H	 -2.323503924	 0.754490322	 -1.129100537
