19
0  1  0  1  0  1  12   7 -6.39199 -5.94107 -6.07974 -6.53066 -6.18155 -6.38875 -1.75002 -1.76255 -1.77529 -6.32197 -12.27334 15.73816 -4.23322 -5.55357
C	 0.914065387	 2.331430100	 0.527671467
H	 -0.106002078	 2.068475850	 0.797719112
H	 0.898348145	 3.110767245	 -0.231459516
H	 1.427543504	 2.732021573	 1.397941452
C	 1.705240039	 1.155250465	 0.000000000
O	 2.903601577	 1.239269291	 -0.252588752
N	 0.999346271	 0.014805810	 -0.173953876
H	 0.000000000	 0.000000000	 -0.000000000
C	 1.654127614	 -1.160436520	 -0.701589434
H	 2.537730646	 -1.398765195	 -0.113456045
H	 0.960444057	 -1.995887118	 -0.660896928
H	 1.975170194	 -1.011715118	 -1.732360661
N	 -1.785348461	 -0.000000000	 0.929576567
H	 -1.789249220	 0.433293616	 1.844469020
H	 -2.170803300	 -0.925562148	 1.069478394
C	 -2.656924309	 0.758704339	 0.024916679
H	 -2.657610719	 0.280123616	 -0.951513969
H	 -3.691222662	 0.852342946	 0.361752995
H	 -2.249662376	 1.758503979	 -0.106124667
