19
0  1  0  1  0  1  12   7 -6.59358 -6.20850 -6.39429 -6.77937 -6.48334 -6.65935 -2.19110 -2.19933 -2.21088 -6.59058 -10.52464 12.14651 -3.05464 -5.15781
C	 0.914065387	 2.331430100	 0.527671467
H	 -0.106002078	 2.068475850	 0.797719112
H	 0.898348145	 3.110767245	 -0.231459516
H	 1.427543504	 2.732021573	 1.397941452
C	 1.705240039	 1.155250465	 0.000000000
O	 2.903601577	 1.239269291	 -0.252588752
N	 0.999346271	 0.014805810	 -0.173953876
H	 0.000000000	 0.000000000	 -0.000000000
C	 1.654127614	 -1.160436520	 -0.701589434
H	 2.537730646	 -1.398765195	 -0.113456045
H	 0.960444057	 -1.995887118	 -0.660896928
H	 1.975170194	 -1.011715118	 -1.732360661
N	 -1.885877542	 -0.000000000	 -0.981219709
H	 -2.680148028	 0.433293616	 -0.527151639
H	 -2.199763498	 -0.925562148	 -1.245082478
C	 -1.538207021	 0.758704339	 -2.188356479
H	 -0.692936480	 0.280123616	 -2.677166251
H	 -2.347065004	 0.852342946	 -2.915666969
H	 -1.221090920	 1.758503979	 -1.901177972
