19
0  1  0  1  0  1   7  12 -5.18677 -4.64271 -4.93512 -5.47918 -5.06204 -5.30559  0.97304  0.95586  0.95019 -4.84884 -11.19820 17.28554 -4.05338 -6.88279
N	 0.149333861	 0.000000000	 0.000000000
H	 0.331772675	 0.605655470	 -0.790369727
H	 0.961785332	 -0.599678035	 0.071568883
C	 0.031934355	 0.808295673	 1.219246369
H	 -0.151067349	 0.150022171	 2.065203320
H	 0.906693218	 1.421462487	 1.444686739
H	 -0.830154483	 1.465037632	 1.129100537
C	 -2.758285135	 2.331430100	 -0.527671467
H	 -1.738217670	 2.068475850	 -0.797719112
H	 -2.742567893	 3.110767245	 0.231459516
H	 -3.271763252	 2.732021573	 -1.397941452
C	 -3.549459786	 1.155250465	 0.000000000
O	 -4.747821325	 1.239269291	 0.252588752
N	 -2.843566018	 0.014805810	 0.173953876
H	 -1.844219748	 0.000000000	 0.000000000
C	 -3.498347362	 -1.160436520	 0.701589434
H	 -4.381950394	 -1.398765195	 0.113456045
H	 -2.804663804	 -1.995887118	 0.660896928
H	 -3.819389941	 -1.011715118	 1.732360661
