19
0  1  0  1  0  1   7  12 -5.55763 -5.24701 -5.34267 -5.65330 -5.44280 -5.56667 -1.74182 -1.75675 -1.76190 -5.40742 -5.96506  6.40820 -1.71270 -4.13786
N	 0.149333861	 0.000000000	 0.000000000
H	 0.331772675	 0.605655470	 -0.790369727
H	 0.961785332	 -0.599678035	 0.071568883
C	 0.031934355	 0.808295673	 1.219246369
H	 -0.151067349	 0.150022171	 2.065203320
H	 0.906693218	 1.421462487	 1.444686739
H	 -0.830154483	 1.465037632	 1.129100537
C	 -3.090544069	 2.331430100	 -0.527671467
H	 -2.070476604	 2.068475850	 -0.797719112
H	 -3.074826827	 3.110767245	 0.231459516
H	 -3.604022186	 2.732021573	 -1.397941452
C	 -3.881718721	 1.155250465	 0.000000000
O	 -5.080080259	 1.239269291	 0.252588752
N	 -3.175824953	 0.014805810	 0.173953876
H	 -2.176478682	 0.000000000	 0.000000000
C	 -3.830606297	 -1.160436520	 0.701589434
H	 -4.714209328	 -1.398765195	 0.113456045
H	 -3.136922739	 -1.995887118	 0.660896928
H	 -4.151648876	 -1.011715118	 1.732360661
