19
0  1  0  1  0  1   7  12 -3.71370 -2.91560 -3.51954 -4.31764 -3.63947 -4.03696  3.63601  3.61976  3.60691 -4.05152 -25.05110 41.75077 -11.31395 -9.43724
N	 2.255356546	 0.255483283	 0.283183834
H	 2.659022871	 0.795402811	 1.038383924
H	 2.673360419	 0.622864532	 -0.562462087
C	 2.627659385	 -1.155699531	 0.436936583
H	 2.201371985	 -1.726732116	 -0.384438867
H	 3.703058027	 -1.342388980	 0.462719980
H	 2.193186812	 -1.540106543	 1.356772584
C	 -0.366324358	 -0.441365566	 2.506439518
H	 0.636993603	 -0.028997861	 2.429535389
H	 -0.310230964	 -1.465136720	 2.870636475
H	 -0.939658594	 0.132772002	 3.229735487
C	 -1.108253613	 -0.434672609	 1.188376839
O	 -2.288586235	 -0.761630656	 1.105648655
N	 -0.379704629	 -0.047685408	 0.116641210
H	 0.606360631	 0.167662980	 0.218976478
C	 -0.985549364	 -0.034127372	 -1.195266089
H	 -1.902679034	 0.550846286	 -1.183658075
H	 -0.286555237	 0.409216380	 -1.899314374
H	 -1.240733343	 -1.039573872	 -1.529383115
