19
0  1  0  1  0  1  12   7  4.02840  5.16335  4.13742  3.00247  3.99294  3.40572 14.56535 14.54869 14.51407  3.01713 -35.23670 66.02036 -14.55820 -13.20833
C	 0.914065387	 2.331430100	 0.527671467
H	 -0.106002078	 2.068475850	 0.797719112
H	 0.898348145	 3.110767245	 -0.231459516
H	 1.427543504	 2.732021573	 1.397941452
C	 1.705240039	 1.155250465	 0.000000000
O	 2.903601577	 1.239269291	 -0.252588752
N	 0.999346271	 0.014805810	 -0.173953876
H	 0.000000000	 0.000000000	 -0.000000000
C	 1.654127614	 -1.160436520	 -0.701589434
H	 2.537730646	 -1.398765195	 -0.113456045
H	 0.960444057	 -1.995887118	 -0.660896928
H	 1.975170194	 -1.011715118	 -1.732360661
N	 -1.389593978	 -0.000000000	 -0.723003996
H	 -2.183864465	 0.433293616	 -0.268935926
H	 -1.703479935	 -0.925562148	 -0.986866765
C	 -1.041923458	 0.758704339	 -1.930140766
H	 -0.196652917	 0.280123616	 -2.418950538
H	 -1.850781441	 0.852342946	 -2.657451256
H	 -0.724807356	 1.758503979	 -1.642962259
