19
0  1  0  1  0  1   7  12  5.54925  6.74312  5.67313  4.47926  5.51226  4.90886 17.09897 17.08424 17.06955  5.12166 -29.78178 63.16678 -14.27816 -13.98518
N	 0.149333861	 0.000000000	 0.000000000
H	 0.331772675	 0.605655470	 -0.790369727
H	 0.961785332	 -0.599678035	 0.071568883
C	 0.031934355	 0.808295673	 1.219246369
H	 -0.151067349	 0.150022171	 2.065203320
H	 0.906693218	 1.421462487	 1.444686739
H	 -0.830154483	 1.465037632	 1.129100537
C	 -2.315273222	 2.331430100	 -0.527671467
H	 -1.295205756	 2.068475850	 -0.797719112
H	 -2.299555980	 3.110767245	 0.231459516
H	 -2.828751339	 2.732021573	 -1.397941452
C	 -3.106447873	 1.155250465	 0.000000000
O	 -4.304809411	 1.239269291	 0.252588752
N	 -2.400554105	 0.014805810	 0.173953876
H	 -1.401207834	 0.000000000	 0.000000000
C	 -3.055335449	 -1.160436520	 0.701589434
H	 -3.938938481	 -1.398765195	 0.113456045
H	 -2.361651891	 -1.995887118	 0.660896928
H	 -3.376378028	 -1.011715118	 1.732360661
