19
0  1  0  1  0  1   7  12 -5.84478 -5.64529 -5.65243 -5.85192 -5.71244 -5.79527 -3.52025 -3.52823 -3.53342 -5.85143 -6.35748  4.98618 -1.72643 -2.75369
N	 0.068041445	 0.000000000	 0.000000000
H	 0.071942204	 0.433293616	 -0.914892453
H	 0.453496284	 -0.925562148	 -0.139901827
C	 0.939617293	 0.758704339	 0.904659888
H	 0.940303703	 0.280123616	 1.881090536
H	 1.973915645	 0.852342946	 0.567823573
H	 0.532355359	 1.758503979	 1.035701234
C	 -3.193167806	 2.331430100	 -0.527671467
H	 -2.173100341	 2.068475850	 -0.797719112
H	 -3.177450564	 3.110767245	 0.231459516
H	 -3.706645923	 2.732021573	 -1.397941452
C	 -3.984342458	 1.155250465	 0.000000000
O	 -5.182703996	 1.239269291	 0.252588752
N	 -3.278448690	 0.014805810	 0.173953876
H	 -2.279102419	 0.000000000	 0.000000000
C	 -3.933230034	 -1.160436520	 0.701589434
H	 -4.816833065	 -1.398765195	 0.113456045
H	 -3.239546476	 -1.995887118	 0.660896928
H	 -4.254272613	 -1.011715118	 1.732360661
