19
0  1  0  1  0  1   7  12 -5.70421 -5.32982 -5.47000 -5.84439 -5.57920 -5.73532 -1.22485 -1.24104 -1.24770 -5.49276 -7.27002  8.93650 -2.26380 -4.89543
N	 0.149333861	 0.000000000	 0.000000000
H	 0.331772675	 0.605655470	 -0.790369727
H	 0.961785332	 -0.599678035	 0.071568883
C	 0.031934355	 0.808295673	 1.219246369
H	 -0.151067349	 0.150022171	 2.065203320
H	 0.906693218	 1.421462487	 1.444686739
H	 -0.830154483	 1.465037632	 1.129100537
C	 -2.979791091	 2.331430100	 -0.527671467
H	 -1.959723626	 2.068475850	 -0.797719112
H	 -2.964073849	 3.110767245	 0.231459516
H	 -3.493269208	 2.732021573	 -1.397941452
C	 -3.770965743	 1.155250465	 -0.000000000
O	 -4.969327281	 1.239269291	 0.252588752
N	 -3.065071975	 0.014805810	 0.173953876
H	 -2.065725704	 0.000000000	 -0.000000000
C	 -3.719853319	 -1.160436520	 0.701589434
H	 -4.603456350	 -1.398765195	 0.113456045
H	 -3.026169761	 -1.995887118	 0.660896928
H	 -4.040895898	 -1.011715118	 1.732360661
