19
0  1  0  1  0  1   7  12 -7.42372 -6.97250 -7.19356 -7.64478 -7.29010 -7.49921 -2.78161 -2.79663 -2.80624 -7.34179 -13.31881 16.37032 -4.76413 -5.62917
N	 2.255356546	 0.255483283	 0.283183834
H	 2.659022871	 0.795402811	 1.038383924
H	 2.673360419	 0.622864532	 -0.562462087
C	 2.627659385	 -1.155699531	 0.436936583
H	 2.201371985	 -1.726732116	 -0.384438867
H	 3.703058027	 -1.342388980	 0.462719980
H	 2.193186812	 -1.540106543	 1.356772584
C	 -0.675511092	 -0.457831873	 2.494400639
H	 0.327806869	 -0.045464168	 2.417496510
H	 -0.619417698	 -1.481603027	 2.858597596
H	 -1.248845328	 0.116305695	 3.217696608
C	 -1.417440347	 -0.451138916	 1.176337960
O	 -2.597772969	 -0.778096963	 1.093609776
N	 -0.688891363	 -0.064151715	 0.104602331
H	 0.297173897	 0.151196673	 0.206937599
C	 -1.294736098	 -0.050593679	 -1.207304968
H	 -2.211865768	 0.534379979	 -1.195696954
H	 -0.595741971	 0.392750073	 -1.911353253
H	 -1.549920077	 -1.056040179	 -1.541421994
