19
0  1  0  1  0  1  12   7 -5.35056 -5.08099 -5.09693 -5.36650 -5.19174 -5.29508 -2.05190 -2.06064 -2.06612 -5.33338 -5.62523  5.24177 -1.25229 -3.69762
C	 0.914065387	 2.331430100	 0.527671467
H	 -0.106002078	 2.068475850	 0.797719112
H	 0.898348145	 3.110767245	 -0.231459516
H	 1.427543504	 2.732021573	 1.397941452
C	 1.705240039	 1.155250465	 0.000000000
O	 2.903601577	 1.239269291	 -0.252588752
N	 0.999346271	 0.014805810	 -0.173953876
H	 0.000000000	 0.000000000	 -0.000000000
C	 1.654127614	 -1.160436520	 -0.701589434
H	 2.537730646	 -1.398765195	 -0.113456045
H	 0.960444057	 -1.995887118	 -0.660896928
H	 1.975170194	 -1.011715118	 -1.732360661
N	 -2.397712773	 1.084505995	 -0.000000000
H	 -2.580151587	 1.690161465	 0.790369727
H	 -3.210164244	 0.484827960	 -0.071568883
C	 -2.280313267	 1.892801668	 -1.219246369
H	 -2.097311563	 1.234528166	 -2.065203320
H	 -3.155072131	 2.505968483	 -1.444686739
H	 -1.418224430	 2.549543628	 -1.129100537
