24
0  1  0  1  0  1  12  12  1.01489  2.02234  1.59450  0.58706  1.47965  0.94710  9.04999  9.03853  8.99938  1.10103 -29.20295 57.57048 -15.08687 -12.17963
C	 -2.816531540	 1.314227227	 -0.776456268
H	 -3.782780918	 1.433564212	 -1.260439479
H	 -2.105882814	 0.890392842	 -1.480954088
H	 -2.444079665	 2.294790752	 -0.485521133
C	 -2.872612257	 0.436501368	 0.449236156
O	 -1.854565224	 0.000000000	 0.984665105
N	 -4.114217514	 0.181330114	 0.926496729
H	 -4.897236594	 0.582997457	 0.443963356
C	 -4.341173866	 -0.606010701	 2.119616613
H	 -3.375108197	 -0.973277345	 2.449735525
H	 -4.782021317	 -0.002803992	 2.910963467
H	 -4.993479652	 -1.450315461	 1.907852778
C	 0.265278557	 2.330529229	 0.798342454
H	 0.732573949	 2.736397805	 1.692128873
H	 -0.757101222	 2.036344417	 1.023068806
H	 0.264025402	 3.117088049	 0.046102766
C	 1.113838445	 1.183111201	 0.295399532
O	 2.313121851	 1.319361359	 0.074314629
N	 0.438655032	 0.021239262	 0.111194646
H	 -0.556369567	 0.000000000	 0.295399532
C	 1.101560632	 -1.172873589	 -0.358010149
H	 2.143224615	 -0.920960318	 -0.532432613
H	 1.046622723	 -1.970991111	 0.381134135
H	 0.660120094	 -1.529218808	 -1.288320231
