24
0  1  0  1  0  1  12  12 -7.58667 -7.10048 -7.16185 -7.64805 -7.25636 -7.49415 -2.47416 -2.48118 -2.50808 -7.57902 -11.21544 13.58113 -3.21164 -6.73306
C	 -0.900129390	 1.314227227	 -2.698313059
H	 -0.964112323	 1.433564212	 -3.777101172
H	 0.065307982	 0.890392842	 -2.435122119
H	 -0.965860670	 2.294790752	 -2.230292705
C	 -1.989650525	 0.436501368	 -2.134034172
O	 -1.944322080	 0.000000000	 -0.984665105
N	 -3.023772934	 0.181330114	 -2.970665580
H	 -2.997396315	 0.582997457	 -3.890046681
C	 -4.170523239	 -0.606010701	 -2.570655604
H	 -3.973381769	 -0.973277345	 -1.568958737
H	 -5.076273443	 -0.002803992	 -2.556767269
H	 -4.313283271	 -1.450315461	 -3.241450903
C	 0.724432020	 2.330529229	 0.453709667
H	 1.191727412	 2.736397805	 1.347496086
H	 -0.297947759	 2.036344417	 0.678436019
H	 0.723178865	 3.117088049	 -0.298530021
C	 1.572991908	 1.183111201	 -0.049233255
O	 2.772275314	 1.319361359	 -0.270318158
N	 0.897808495	 0.021239262	 -0.233438141
H	 -0.097216104	 0.000000000	 -0.049233255
C	 1.560714095	 -1.172873589	 -0.702642936
H	 2.602378078	 -0.920960318	 -0.877065400
H	 1.505776186	 -1.970991111	 0.036501348
H	 1.119273557	 -1.529218808	 -1.632953018
