24
0  1  0  1  0  1  12  12 -7.18572 -6.59502 -6.71938 -7.31008 -6.82394 -7.11896 -1.16575 -1.17468 -1.20779 -7.12603 -13.79288 18.82672 -4.22020 -7.93967
C	 -0.900129390	 1.314227227	 -2.698313059
H	 -0.964112323	 1.433564212	 -3.777101172
H	 0.065307982	 0.890392842	 -2.435122119
H	 -0.965860670	 2.294790752	 -2.230292705
C	 -1.989650525	 0.436501368	 -2.134034172
O	 -1.944322080	 0.000000000	 -0.984665105
N	 -3.023772934	 0.181330114	 -2.970665580
H	 -2.997396315	 0.582997457	 -3.890046681
C	 -4.170523239	 -0.606010701	 -2.570655604
H	 -3.973381769	 -0.973277345	 -1.568958737
H	 -5.076273443	 -0.002803992	 -2.556767269
H	 -4.313283271	 -1.450315461	 -3.241450903
C	 0.627215916	 2.330529229	 0.404476412
H	 1.094511308	 2.736397805	 1.298262830
H	 -0.395163863	 2.036344417	 0.629202764
H	 0.625962761	 3.117088049	 -0.347763276
C	 1.475775804	 1.183111201	 -0.098466510
O	 2.675059210	 1.319361359	 -0.319551413
N	 0.800592391	 0.021239262	 -0.282671397
H	 -0.194432208	 0.000000000	 -0.098466510
C	 1.463497991	 -1.172873589	 -0.751876191
H	 2.505161974	 -0.920960318	 -0.926298656
H	 1.408560082	 -1.970991111	 -0.012731907
H	 1.022057453	 -1.529218808	 -1.682186273
