24
0  1  0  1  0  1  12  12 -7.63336 -7.22177 -7.18139 -7.59298 -7.26803 -7.46801 -3.70879 -3.71750 -3.74623 -7.44450 -10.04793 11.62007 -3.55638 -5.46026
C	 -2.816531540	 1.314227227	 -0.776456268
H	 -3.782780918	 1.433564212	 -1.260439479
H	 -2.105882814	 0.890392842	 -1.480954088
H	 -2.444079665	 2.294790752	 -0.485521133
C	 -2.872612257	 0.436501368	 0.449236156
O	 -1.854565224	 0.000000000	 0.984665105
N	 -4.114217514	 0.181330114	 0.926496729
H	 -4.897236594	 0.582997457	 0.443963356
C	 -4.341173866	 -0.606010701	 2.119616613
H	 -3.375108197	 -0.973277345	 2.449735525
H	 -4.782021317	 -0.002803992	 2.910963467
H	 -4.993479652	 -1.450315461	 1.907852778
C	 0.728919863	 2.330529229	 0.552176177
H	 1.196215255	 2.736397805	 1.445962596
H	 -0.293459916	 2.036344417	 0.776902529
H	 0.727666708	 3.117088049	 -0.200063511
C	 1.577479751	 1.183111201	 0.049233255
O	 2.776763157	 1.319361359	 -0.171851648
N	 0.902296338	 0.021239262	 -0.134971631
H	 -0.092728261	 0.000000000	 0.049233255
C	 1.565201938	 -1.172873589	 -0.604176426
H	 2.606865921	 -0.920960318	 -0.778598890
H	 1.510264029	 -1.970991111	 0.134967858
H	 1.123761400	 -1.529218808	 -1.534486508
