24
0  1  0  1  0  1  12  12 -8.03628 -7.68453 -7.64461 -7.99635 -7.70742 -7.88694 -5.15977 -5.16718 -5.19677 -7.79229 -9.37623  9.45644 -3.31331 -4.55920
C	 0.619706914	 1.161890874	 2.006159006
H	 1.194491562	 0.967837284	 2.908425451
H	 -0.430253329	 1.278683911	 2.260947652
H	 0.956628378	 2.099626407	 1.567975851
C	 0.753644910	 0.071051214	 0.972718588
O	 0.003706487	 0.000000000	 0.000000000
N	 1.763923116	 -0.806879564	 1.180201436
H	 2.343078017	 -0.677449305	 1.989597135
C	 2.057106036	 -1.885291665	 0.260407483
H	 1.291869145	 -1.867564932	 -0.508516716
H	 3.032008219	 -1.751628591	 -0.204495270
H	 2.032486566	 -2.845996768	 0.769953237
C	 -2.790978334	 2.330529229	 -0.502942922
H	 -3.258273726	 2.736397805	 -1.396729341
H	 -1.768598555	 2.036344417	 -0.727669274
H	 -2.789725179	 3.117088049	 0.249296766
C	 -3.639538223	 1.183111201	 0.000000000
O	 -4.838821628	 1.319361359	 0.221084903
N	 -2.964354809	 0.021239262	 0.184204886
H	 -1.969330210	 0.000000000	 0.000000000
C	 -3.627260409	 -1.172873589	 0.653409681
H	 -4.668924392	 -0.920960318	 0.827832145
H	 -3.572322500	 -1.970991111	 -0.085734603
H	 -3.185819872	 -1.529218808	 1.583719763
