24
0  1  0  1  0  1  12  12 -7.68988 -7.29793 -7.33961 -7.73156 -7.40856 -7.60753 -4.07416 -4.08168 -4.11068 -7.49183 -10.88662 12.34475 -3.77915 -5.17080
C	 -2.394979398	 0.177225769	 -2.006159006
H	 -2.969764046	 -0.016827821	 -2.908425451
H	 -1.345019156	 0.294018805	 -2.260947652
H	 -2.731900862	 1.114961302	 -1.567975851
C	 -2.528917394	 -0.913613891	 -0.972718588
O	 -1.778978971	 -0.984665105	 0.000000000
N	 -3.539195600	 -1.791544669	 -1.180201436
H	 -4.118350502	 -1.662114410	 -1.989597135
C	 -3.832378521	 -2.869956771	 -0.260407483
H	 -3.067141629	 -2.852230037	 0.508516716
H	 -4.807280703	 -2.736293696	 0.204495270
H	 -3.807759050	 -3.830661873	 -0.769953237
C	 0.732699175	 2.281295974	 0.502942922
H	 1.199994567	 2.687164550	 1.396729341
H	 -0.289680604	 1.987111162	 0.727669274
H	 0.731446020	 3.067854794	 -0.249296766
C	 1.581259063	 1.133877946	 0.000000000
O	 2.780542469	 1.270128104	 -0.221084903
N	 0.906075650	 -0.027993993	 -0.184204886
H	 -0.088948949	 -0.049233255	 0.000000000
C	 1.568981250	 -1.222106844	 -0.653409681
H	 2.610645233	 -0.970193573	 -0.827832145
H	 1.514043341	 -2.020224366	 0.085734603
H	 1.127540712	 -1.578452063	 -1.583719763
