24
0  1  0  1  0  1  12  12 -6.18792 -5.88606 -5.79244 -6.09430 -5.87550 -6.00484 -2.72070 -2.72276 -2.72949 -6.20680 -6.14867  5.96751 -1.52790 -4.49775
C	 -1.583478320	 2.099082560	 -2.006159006
H	 -2.038925983	 2.499833872	 -2.908425451
H	 -0.957352463	 1.248186836	 -2.260947652
H	 -0.939836259	 2.859732874	 -1.567975851
C	 -2.595142175	 1.669656437	 -0.972718588
O	 -2.281705120	 0.984665105	 0.000000000
N	 -3.860591635	 2.105617640	 -1.180201436
H	 -4.038079194	 2.671895627	 -1.989597135
C	 -4.941115371	 1.820315446	 -0.260407483
H	 -4.543145123	 1.166464225	 0.508516716
H	 -5.312810844	 2.731437040	 0.204495270
H	 -5.760800660	 1.318641808	 -0.769953237
C	 0.935733380	 2.281295974	 0.502942922
H	 1.403028772	 2.687164550	 1.396729341
H	 -0.086646399	 1.987111162	 0.727669274
H	 0.934480225	 3.067854794	 -0.249296766
C	 1.784293268	 1.133877946	 0.000000000
O	 2.983576674	 1.270128104	 -0.221084903
N	 1.109109855	 -0.027993993	 -0.184204886
H	 0.114085256	 -0.049233255	 0.000000000
C	 1.772015455	 -1.222106844	 -0.653409681
H	 2.813679438	 -0.970193573	 -0.827832145
H	 1.717077546	 -2.020224366	 0.085734603
H	 1.330574917	 -1.578452063	 -1.583719763
