24
0  1  0  1  0  1  12  12 -8.12695 -7.82730 -7.76643 -8.06609 -7.83609 -7.97687 -5.14857 -5.15480 -5.17332 -8.06606 -7.95040  6.39031 -2.28278 -4.22318
C	 2.063921871	 -2.353051477	 0.688130414
H	 2.622146675	 -3.263054713	 0.482222411
H	 1.135230013	 -2.359580927	 0.123804997
H	 1.804702942	 -2.329604778	 1.745071414
C	 2.831557813	 -1.098639438	 0.351893675
O	 2.286371170	 0.002797367	 0.294921284
N	 4.158316026	 -1.267453205	 0.138145705
H	 4.534637326	 -2.194698901	 0.214903031
C	 5.045554210	 -0.160987232	 -0.150802830
H	 4.431361830	 0.729822544	 -0.230626543
H	 5.772968760	 -0.021521500	 0.646600477
H	 5.570544503	 -0.320968960	 -1.089945166
C	 -0.897472521	 -0.278651039	 2.391551552
H	 -1.379265541	 0.407624429	 3.083541375
H	 0.153591986	 -0.018344913	 2.292500190
H	 -0.990026439	 -1.279628792	 2.808706447
C	 -1.644515831	 -0.232899977	 1.076482455
O	 -2.856419589	 -0.416502429	 1.019012924
N	 -0.866026148	 0.017893216	 -0.005555933
H	 0.130705734	 0.134540617	 0.126259994
C	 -1.423024159	 0.101770396	 -1.335300386
H	 -2.487993841	 -0.094524527	 -1.256210407
H	 -1.273771277	 1.091916959	 -1.763876385
H	 -0.972598074	 -0.636022531	 -1.998705579
