24
0  1  0  1  0  1  12  12  2.42838  3.72444  2.97175  1.67569  2.81254  2.14142 14.42884 14.41267 14.37977  2.26221 -34.24567 68.06171 -15.32378 -16.23004
C	 -0.521542030	 1.114417455	 2.006159006
H	 -0.066094367	 1.515168767	 2.908425451
H	 -1.147667888	 0.263521731	 2.260947652
H	 -1.165184091	 1.875067769	 1.567975851
C	 0.490121825	 0.684991332	 0.972718588
O	 0.176684770	 0.000000000	 0.000000000
N	 1.755571285	 1.120952535	 1.180201436
H	 1.933058843	 1.687230522	 1.989597135
C	 2.836095020	 0.835650341	 0.260407483
H	 2.438124773	 0.181799120	 -0.508516716
H	 3.207790494	 1.746771935	 -0.204495270
H	 3.655780310	 0.333976703	 0.769953237
C	 -2.147173840	 2.330529229	 -0.502942922
H	 -2.614469232	 2.736397805	 -1.396729341
H	 -1.124794061	 2.036344417	 -0.727669274
H	 -2.145920685	 3.117088049	 0.249296766
C	 -2.995733729	 1.183111201	 0.000000000
O	 -4.195017134	 1.319361359	 0.221084903
N	 -2.320550315	 0.021239262	 0.184204886
H	 -1.325525716	 0.000000000	 0.000000000
C	 -2.983455915	 -1.172873589	 0.653409681
H	 -4.025119898	 -0.920960318	 0.827832145
H	 -2.928518006	 -1.970991111	 -0.085734603
H	 -2.542015378	 -1.529218808	 1.583719763
