24
0  1  0  1  0  1  12  12 -7.21442 -6.92928 -6.84850 -7.13365 -6.92178 -7.05080 -4.29498 -4.30180 -4.31728 -7.14470 -7.11022  6.16726 -2.16181 -4.03993
C	 -2.816531540	 1.314227227	 -0.776456268
H	 -3.782780918	 1.433564212	 -1.260439479
H	 -2.105882814	 0.890392842	 -1.480954088
H	 -2.444079665	 2.294790752	 -0.485521133
C	 -2.872612257	 0.436501368	 0.449236156
O	 -1.854565224	 0.000000000	 0.984665105
N	 -4.114217514	 0.181330114	 0.926496729
H	 -4.897236594	 0.582997457	 0.443963356
C	 -4.341173866	 -0.606010701	 2.119616613
H	 -3.375108197	 -0.973277345	 2.449735525
H	 -4.782021317	 -0.002803992	 2.910963467
H	 -4.993479652	 -1.450315461	 1.907852778
C	 0.914376385	 2.330529229	 0.453709667
H	 1.381671777	 2.736397805	 1.347496086
H	 -0.108003394	 2.036344417	 0.678436019
H	 0.913123230	 3.117088049	 -0.298530021
C	 1.762936273	 1.183111201	 -0.049233255
O	 2.962219679	 1.319361359	 -0.270318158
N	 1.087752860	 0.021239262	 -0.233438141
H	 0.092728261	 0.000000000	 -0.049233255
C	 1.750658460	 -1.172873589	 -0.702642936
H	 2.792322443	 -0.920960318	 -0.877065400
H	 1.695720551	 -1.970991111	 0.036501348
H	 1.309217922	 -1.529218808	 -1.632953018
