24
0  1  0  1  0  1  12  12 -4.90101 -4.05373 -4.33628 -5.18357 -4.45209 -4.88919  2.12099  2.10764  2.07393 -4.65563 -23.85297 40.77082 -11.08330 -10.49018
C	 2.063921871	 -2.353051477	 0.688130414
H	 2.622146675	 -3.263054713	 0.482222411
H	 1.135230013	 -2.359580927	 0.123804997
H	 1.804702942	 -2.329604778	 1.745071414
C	 2.831557813	 -1.098639438	 0.351893675
O	 2.286371170	 0.002797367	 0.294921284
N	 4.158316026	 -1.267453205	 0.138145705
H	 4.534637326	 -2.194698901	 0.214903031
C	 5.045554210	 -0.160987232	 -0.150802830
H	 4.431361830	 0.729822544	 -0.230626543
H	 5.772968760	 -0.021521500	 0.646600477
H	 5.570544503	 -0.320968960	 -1.089945166
C	 -0.309563766	 -0.314581016	 2.437550085
H	 -0.791356786	 0.371694452	 3.129539909
H	 0.741500741	 -0.054274890	 2.338498724
H	 -0.402117684	 -1.315558769	 2.854704980
C	 -1.056607076	 -0.268829954	 1.122480988
O	 -2.268510834	 -0.452432406	 1.065011457
N	 -0.278117393	 -0.018036761	 0.040442601
H	 0.718614489	 0.098610640	 0.172258528
C	 -0.835115404	 0.065840419	 -1.289301852
H	 -1.900085086	 -0.130454504	 -1.210211873
H	 -0.685862522	 1.055986982	 -1.717877851
H	 -0.384689319	 -0.671952508	 -1.952707045
