24
0  1  0  1  0  1  12  12  3.96057  5.18731  4.58009  3.35335  4.45204  3.79420 13.19604 13.18246 13.12875  3.37562 -37.04494 75.31686 -20.32951 -14.56680
C	 2.063921871	 -2.353051477	 0.688130414
H	 2.622146675	 -3.263054713	 0.482222411
H	 1.135230013	 -2.359580927	 0.123804997
H	 1.804702942	 -2.329604778	 1.745071414
C	 2.831557813	 -1.098639438	 0.351893675
O	 2.286371170	 0.002797367	 0.294921284
N	 4.158316026	 -1.267453205	 0.138145705
H	 4.534637326	 -2.194698901	 0.214903031
C	 5.045554210	 -0.160987232	 -0.150802830
H	 4.431361830	 0.729822544	 -0.230626543
H	 5.772968760	 -0.021521500	 0.646600477
H	 5.570544503	 -0.320968960	 -1.089945166
C	 -0.113594181	 -0.326557675	 2.452882930
H	 -0.595387201	 0.359717793	 3.144872754
H	 0.937470326	 -0.066251549	 2.353831568
H	 -0.206148099	 -1.327535428	 2.870037825
C	 -0.860637491	 -0.280806613	 1.137813833
O	 -2.072541249	 -0.464409065	 1.080344302
N	 -0.082147808	 -0.030013420	 0.055775446
H	 0.914584074	 0.086633981	 0.187591373
C	 -0.639145819	 0.053863760	 -1.273969008
H	 -1.704115501	 -0.142431163	 -1.194879029
H	 -0.489892937	 1.044010323	 -1.702545007
H	 -0.188719734	 -0.683929167	 -1.937374201
