24
0  1  0  1  0  1  12  12 -7.44037 -7.17273 -7.15508 -7.42272 -7.21241 -7.34207 -4.77663 -4.78231 -4.80145 -7.36725 -7.66828  6.30893 -2.24103 -3.76688
C	 -2.394979398	 0.177225769	 -2.006159006
H	 -2.969764046	 -0.016827821	 -2.908425451
H	 -1.345019156	 0.294018805	 -2.260947652
H	 -2.731900862	 1.114961302	 -1.567975851
C	 -2.528917394	 -0.913613891	 -0.972718588
O	 -1.778978971	 -0.984665105	 0.000000000
N	 -3.539195600	 -1.791544669	 -1.180201436
H	 -4.118350502	 -1.662114410	 -1.989597135
C	 -3.832378521	 -2.869956771	 -0.260407483
H	 -3.067141629	 -2.852230037	 0.508516716
H	 -4.807280703	 -2.736293696	 0.204495270
H	 -3.807759050	 -3.830661873	 -0.769953237
C	 0.910597073	 2.379762484	 0.502942922
H	 1.377892465	 2.785631060	 1.396729341
H	 -0.111782706	 2.085577672	 0.727669274
H	 0.909343918	 3.166321304	 -0.249296766
C	 1.759156961	 1.232344456	 0.000000000
O	 2.958440367	 1.368594614	 -0.221084903
N	 1.083973548	 0.070472517	 -0.184204886
H	 0.088948949	 0.049233255	 0.000000000
C	 1.746879148	 -1.123640334	 -0.653409681
H	 2.788543131	 -0.871727063	 -0.827832145
H	 1.691941239	 -1.921757856	 0.085734603
H	 1.305438610	 -1.479985553	 -1.583719763
