24
0  1  0  1  0  1  12  12 -4.51793 -3.86602 -4.01513 -4.66704 -4.09412 -4.43376  0.35802  0.35178  0.33182 -4.11772 -18.95282 32.07529 -9.20726 -8.03292
C	 0.982885116	 1.314227227	 1.761121373
H	 1.949134494	 1.433564212	 2.245104584
H	 0.272236389	 0.890392842	 2.465619193
H	 0.610433240	 2.294790752	 1.470186238
C	 1.038965833	 0.436501368	 0.535428949
O	 0.020918800	 0.000000000	 0.000000000
N	 2.280571090	 0.181330114	 0.058168376
H	 3.063590169	 0.582997457	 0.540701749
C	 2.507527441	 -0.606010701	 -1.134951507
H	 1.541461773	 -0.973277345	 -1.465070420
H	 2.948374893	 -0.002803992	 -1.926298362
H	 3.159833228	 -1.450315461	 -0.923187673
C	 -2.392928532	 2.330529229	 -0.502942922
H	 -2.860223924	 2.736397805	 -1.396729341
H	 -1.370548753	 2.036344417	 -0.727669274
H	 -2.391675377	 3.117088049	 0.249296766
C	 -3.241488421	 1.183111201	 0.000000000
O	 -4.440771826	 1.319361359	 0.221084903
N	 -2.566305007	 0.021239262	 0.184204886
H	 -1.571280408	 0.000000000	 0.000000000
C	 -3.229210607	 -1.172873589	 0.653409681
H	 -4.270874590	 -0.920960318	 0.827832145
H	 -3.174272698	 -1.970991111	 -0.085734603
H	 -2.787770070	 -1.529218808	 1.583719763
