24
0  1  0  1  0  1  12  12 -2.88221 -2.69604 -2.66032 -2.84649 -2.72852 -2.79745 -0.22618 -0.23537 -0.23709 -2.85893 -2.64928  3.40498 -0.66943 -2.94519
C	 0.029195840	 1.314227227	 1.713647954
H	 0.093178773	 1.433564212	 2.792436067
H	 -0.936241533	 0.890392842	 1.450457013
H	 0.094927119	 2.294790752	 1.245627600
C	 1.118716975	 0.436501368	 1.149369067
O	 1.073388530	 0.000000000	 0.000000000
N	 2.152839384	 0.181330114	 1.986000475
H	 2.126462764	 0.582997457	 2.905381576
C	 3.299589688	 -0.606010701	 1.585990499
H	 3.102448219	 -0.973277345	 0.584293632
H	 4.205339893	 -0.002803992	 1.572102164
H	 3.442349721	 -1.450315461	 2.256785798
C	 -2.943114271	 2.330529229	 -0.502942922
H	 -3.410409663	 2.736397805	 -1.396729341
H	 -1.920734492	 2.036344417	 -0.727669274
H	 -2.941861116	 3.117088049	 0.249296766
C	 -3.791674160	 1.183111201	 0.000000000
O	 -4.990957565	 1.319361359	 0.221084903
N	 -3.116490746	 0.021239262	 0.184204886
H	 -2.121466147	 0.000000000	 0.000000000
C	 -3.779396346	 -1.172873589	 0.653409681
H	 -4.821060329	 -0.920960318	 0.827832145
H	 -3.724458437	 -1.970991111	 -0.085734603
H	 -3.337955809	 -1.529218808	 1.583719763
