24
0  1  0  1  0  1  12  12 -6.69040 -6.35809 -6.34864 -6.68096 -6.44113 -6.58399 -2.61913 -2.62800 -2.63797 -6.67726 -6.68223  6.66829 -1.72819 -4.93513
C	 -0.521542030	 1.114417455	 2.006159006
H	 -0.066094367	 1.515168767	 2.908425451
H	 -1.147667888	 0.263521731	 2.260947652
H	 -1.165184091	 1.875067769	 1.567975851
C	 0.490121825	 0.684991332	 0.972718588
O	 0.176684770	 0.000000000	 0.000000000
N	 1.755571285	 1.120952535	 1.180201436
H	 1.933058843	 1.687230522	 1.989597135
C	 2.836095020	 0.835650341	 0.260407483
H	 2.438124773	 0.181799120	 -0.508516716
H	 3.207790494	 1.746771935	 -0.204495270
H	 3.655780310	 0.333976703	 0.769953237
C	 -3.005579832	 2.330529229	 -0.502942922
H	 -3.472875224	 2.736397805	 -1.396729341
H	 -1.983200053	 2.036344417	 -0.727669274
H	 -3.004326677	 3.117088049	 0.249296766
C	 -3.854139721	 1.183111201	 0.000000000
O	 -5.053423126	 1.319361359	 0.221084903
N	 -3.178956307	 0.021239262	 0.184204886
H	 -2.183931708	 0.000000000	 0.000000000
C	 -3.841861907	 -1.172873589	 0.653409681
H	 -4.883525890	 -0.920960318	 0.827832145
H	 -3.786923998	 -1.970991111	 -0.085734603
H	 -3.400421370	 -1.529218808	 1.583719763
