24
0  1  0  1  0  1  12  12 -4.42460 -3.50846 -3.88801 -4.80415 -4.03213 -4.49071  4.81575  4.80032  4.77127 -4.17012 -21.60021 37.71961 -8.35099 -11.93853
C	 -0.521542030	 1.114417455	 2.006159006
H	 -0.066094367	 1.515168767	 2.908425451
H	 -1.147667888	 0.263521731	 2.260947652
H	 -1.165184091	 1.875067769	 1.567975851
C	 0.490121825	 0.684991332	 0.972718588
O	 0.176684770	 0.000000000	 0.000000000
N	 1.755571285	 1.120952535	 1.180201436
H	 1.933058843	 1.687230522	 1.989597135
C	 2.836095020	 0.835650341	 0.260407483
H	 2.438124773	 0.181799120	 -0.508516716
H	 3.207790494	 1.746771935	 -0.204495270
H	 3.655780310	 0.333976703	 0.769953237
C	 -2.361775338	 2.330529229	 -0.502942922
H	 -2.829070730	 2.736397805	 -1.396729341
H	 -1.339395559	 2.036344417	 -0.727669274
H	 -2.360522183	 3.117088049	 0.249296766
C	 -3.210335227	 1.183111201	 0.000000000
O	 -4.409618632	 1.319361359	 0.221084903
N	 -2.535151813	 0.021239262	 0.184204886
H	 -1.540127214	 0.000000000	 0.000000000
C	 -3.198057413	 -1.172873589	 0.653409681
H	 -4.239721396	 -0.920960318	 0.827832145
H	 -3.143119504	 -1.970991111	 -0.085734603
H	 -2.756616876	 -1.529218808	 1.583719763
