24
0  1  0  1  0  1  12  12 -7.46171 -7.01317 -7.01019 -7.45872 -7.07671 -7.30830 -3.94654 -3.95094 -3.97638 -7.13515 -12.73514 16.48213 -5.16523 -5.71691
C	 0.982885116	 1.314227227	 1.761121373
H	 1.949134494	 1.433564212	 2.245104584
H	 0.272236389	 0.890392842	 2.465619193
H	 0.610433240	 2.294790752	 1.470186238
C	 1.038965833	 0.436501368	 0.535428949
O	 0.020918800	 0.000000000	 0.000000000
N	 2.280571090	 0.181330114	 0.058168376
H	 3.063590169	 0.582997457	 0.540701749
C	 2.507527441	 -0.606010701	 -1.134951507
H	 1.541461773	 -0.973277345	 -1.465070420
H	 2.948374893	 -0.002803992	 -1.926298362
H	 3.159833228	 -1.450315461	 -0.923187673
C	 -2.591953433	 2.330529229	 -0.502942922
H	 -3.059248825	 2.736397805	 -1.396729341
H	 -1.569573654	 2.036344417	 -0.727669274
H	 -2.590700278	 3.117088049	 0.249296766
C	 -3.440513322	 1.183111201	 0.000000000
O	 -4.639796727	 1.319361359	 0.221084903
N	 -2.765329908	 0.021239262	 0.184204886
H	 -1.770305309	 0.000000000	 0.000000000
C	 -3.428235508	 -1.172873589	 0.653409681
H	 -4.469899491	 -0.920960318	 0.827832145
H	 -3.373297599	 -1.970991111	 -0.085734603
H	 -2.986794971	 -1.529218808	 1.583719763
