24
0  1  0  1  0  1  12  12 -7.16078 -6.60422 -6.69651 -7.25307 -6.81540 -7.07959 -0.99564 -1.00849 -1.03494 -7.01577 -11.50666 15.76975 -3.64037 -7.63849
C	 -0.521542030	 1.114417455	 2.006159006
H	 -0.066094367	 1.515168767	 2.908425451
H	 -1.147667888	 0.263521731	 2.260947652
H	 -1.165184091	 1.875067769	 1.567975851
C	 0.490121825	 0.684991332	 0.972718588
O	 0.176684770	 0.000000000	 0.000000000
N	 1.755571285	 1.120952535	 1.180201436
H	 1.933058843	 1.687230522	 1.989597135
C	 2.836095020	 0.835650341	 0.260407483
H	 2.438124773	 0.181799120	 -0.508516716
H	 3.207790494	 1.746771935	 -0.204495270
H	 3.655780310	 0.333976703	 0.769953237
C	 -2.683677585	 2.330529229	 -0.502942922
H	 -3.150972977	 2.736397805	 -1.396729341
H	 -1.661297806	 2.036344417	 -0.727669274
H	 -2.682424430	 3.117088049	 0.249296766
C	 -3.532237474	 1.183111201	 0.000000000
O	 -4.731520879	 1.319361359	 0.221084903
N	 -2.857054060	 0.021239262	 0.184204886
H	 -1.862029461	 0.000000000	 0.000000000
C	 -3.519959660	 -1.172873589	 0.653409681
H	 -4.561623643	 -0.920960318	 0.827832145
H	 -3.465021751	 -1.970991111	 -0.085734603
H	 -3.078519123	 -1.529218808	 1.583719763
