24
0  1  0  1  0  1  12  12 -7.37257 -7.04513 -7.03682 -7.36427 -7.11153 -7.26367 -3.68650 -3.69025 -3.70453 -7.43069 -7.70769  7.05516 -1.91069 -4.86747
C	 -0.900129390	 1.314227227	 -2.698313059
H	 -0.964112323	 1.433564212	 -3.777101172
H	 0.065307982	 0.890392842	 -2.435122119
H	 -0.965860670	 2.294790752	 -2.230292705
C	 -1.989650525	 0.436501368	 -2.134034172
O	 -1.944322080	 0.000000000	 -0.984665105
N	 -3.023772934	 0.181330114	 -2.970665580
H	 -2.997396315	 0.582997457	 -3.890046681
C	 -4.170523239	 -0.606010701	 -2.570655604
H	 -3.973381769	 -0.973277345	 -1.568958737
H	 -5.076273443	 -0.002803992	 -2.556767269
H	 -4.313283271	 -1.450315461	 -3.241450903
C	 0.918864228	 2.330529229	 0.552176177
H	 1.386159620	 2.736397805	 1.445962596
H	 -0.103515551	 2.036344417	 0.776902529
H	 0.917611073	 3.117088049	 -0.200063511
C	 1.767424116	 1.183111201	 0.049233255
O	 2.966707522	 1.319361359	 -0.171851648
N	 1.092240703	 0.021239262	 -0.134971631
H	 0.097216104	 0.000000000	 0.049233255
C	 1.755146303	 -1.172873589	 -0.604176426
H	 2.796810286	 -0.920960318	 -0.778598890
H	 1.700208394	 -1.970991111	 0.134967858
H	 1.313705765	 -1.529218808	 -1.534486508
