24
0  1  0  1  0  1  12  12 -5.35358 -4.58700 -4.67899 -5.44556 -4.80852 -5.19569  2.34554  2.33609  2.29134 -5.15069 -16.06626 26.08319 -5.25117 -9.91646
C	 -1.583478320	 2.099082560	 -2.006159006
H	 -2.038925983	 2.499833872	 -2.908425451
H	 -0.957352463	 1.248186836	 -2.260947652
H	 -0.939836259	 2.859732874	 -1.567975851
C	 -2.595142175	 1.669656437	 -0.972718588
O	 -2.281705120	 0.984665105	 0.000000000
N	 -3.860591635	 2.105617640	 -1.180201436
H	 -4.038079194	 2.671895627	 -1.989597135
C	 -4.941115371	 1.820315446	 -0.260407483
H	 -4.543145123	 1.166464225	 0.508516716
H	 -5.312810844	 2.731437040	 0.204495270
H	 -5.760800660	 1.318641808	 -0.769953237
C	 0.365307100	 2.527462250	 0.502942922
H	 0.832602492	 2.933330826	 1.396729341
H	 -0.657072679	 2.233277438	 0.727669274
H	 0.364053945	 3.314021070	 -0.249296766
C	 1.213866988	 1.380044222	 0.000000000
O	 2.413150394	 1.516294380	 -0.221084903
N	 0.538683575	 0.218172283	 -0.184204886
H	 -0.456341024	 0.196933021	 0.000000000
C	 1.201589175	 -0.975940568	 -0.653409681
H	 2.243253158	 -0.724027297	 -0.827832145
H	 1.146651266	 -1.774058090	 0.085734603
H	 0.760148637	 -1.332285787	 -1.583719763
