24
0  1  0  1  0  1  12  12 -8.10009 -7.49930 -7.58415 -8.18493 -7.68493 -7.98892 -2.79926 -2.81081 -2.84619 -7.81635 -15.84577 22.00022 -6.30063 -7.67017
C	 2.063921871	 -2.353051477	 0.688130414
H	 2.622146675	 -3.263054713	 0.482222411
H	 1.135230013	 -2.359580927	 0.123804997
H	 1.804702942	 -2.329604778	 1.745071414
C	 2.831557813	 -1.098639438	 0.351893675
O	 2.286371170	 0.002797367	 0.294921284
N	 4.158316026	 -1.267453205	 0.138145705
H	 4.534637326	 -2.194698901	 0.214903031
C	 5.045554210	 -0.160987232	 -0.150802830
H	 4.431361830	 0.729822544	 -0.230626543
H	 5.772968760	 -0.021521500	 0.646600477
H	 5.570544503	 -0.320968960	 -1.089945166
C	 -0.505533351	 -0.302604357	 2.422217241
H	 -0.987326371	 0.383671111	 3.114207064
H	 0.545531156	 -0.042298231	 2.323165879
H	 -0.598087269	 -1.303582110	 2.839372136
C	 -1.252576661	 -0.256853295	 1.107148144
O	 -2.464480419	 -0.440455747	 1.049678613
N	 -0.474086978	 -0.006060102	 0.025109756
H	 0.522644904	 0.110587299	 0.156925683
C	 -1.031084989	 0.077817078	 -1.304634696
H	 -2.096054671	 -0.118477845	 -1.225544718
H	 -0.881832107	 1.067963641	 -1.733210695
H	 -0.580658904	 -0.659975849	 -1.968039889
