24
0  1  0  1  0  1  12  12 -7.06337 -6.84311 -6.81206 -7.03231 -6.86371 -6.96700 -4.77758 -4.78255 -4.79634 -7.03285 -6.55813  4.50748 -1.75309 -3.22910
C	 -2.394979398	 0.177225769	 -2.006159006
H	 -2.969764046	 -0.016827821	 -2.908425451
H	 -1.345019156	 0.294018805	 -2.260947652
H	 -2.731900862	 1.114961302	 -1.567975851
C	 -2.528917394	 -0.913613891	 -0.972718588
O	 -1.778978971	 -0.984665105	 0.000000000
N	 -3.539195600	 -1.791544669	 -1.180201436
H	 -4.118350502	 -1.662114410	 -1.989597135
C	 -3.832378521	 -2.869956771	 -0.260407483
H	 -3.067141629	 -2.852230037	 0.508516716
H	 -4.807280703	 -2.736293696	 0.204495270
H	 -3.807759050	 -3.830661873	 -0.769953237
C	 0.999546021	 2.428995740	 0.502942922
H	 1.466841413	 2.834864316	 1.396729341
H	 -0.022833758	 2.134810928	 0.727669274
H	 0.998292866	 3.215554560	 -0.249296766
C	 1.848105909	 1.281577712	 0.000000000
O	 3.047389315	 1.417827869	 -0.221084903
N	 1.172922496	 0.119705773	 -0.184204886
H	 0.177897897	 0.098466511	 0.000000000
C	 1.835828096	 -1.074407078	 -0.653409681
H	 2.877492079	 -0.822493807	 -0.827832145
H	 1.780890187	 -1.872524600	 0.085734603
H	 1.394387558	 -1.430752297	 -1.583719763
