24
0  1  0  1  0  1  12  12 -7.60046 -7.20131 -7.22034 -7.61948 -7.30470 -7.49523 -3.25939 -3.26463 -3.28489 -7.63299 -9.23792  9.79074 -2.46644 -5.71936
C	 -0.900129390	 1.314227227	 -2.698313059
H	 -0.964112323	 1.433564212	 -3.777101172
H	 0.065307982	 0.890392842	 -2.435122119
H	 -0.965860670	 2.294790752	 -2.230292705
C	 -1.989650525	 0.436501368	 -2.134034172
O	 -1.944322080	 0.000000000	 -0.984665105
N	 -3.023772934	 0.181330114	 -2.970665580
H	 -2.997396315	 0.582997457	 -3.890046681
C	 -4.170523239	 -0.606010701	 -2.570655604
H	 -3.973381769	 -0.973277345	 -1.568958737
H	 -5.076273443	 -0.002803992	 -2.556767269
H	 -4.313283271	 -1.450315461	 -3.241450903
C	 0.821648124	 2.330529229	 0.502942922
H	 1.288943516	 2.736397805	 1.396729341
H	 -0.200731655	 2.036344417	 0.727669274
H	 0.820394969	 3.117088049	 -0.249296766
C	 1.670208012	 1.183111201	 -0.000000000
O	 2.869491418	 1.319361359	 -0.221084903
N	 0.995024599	 0.021239262	 -0.184204886
H	 0.000000000	 0.000000000	 0.000000000
C	 1.657930199	 -1.172873589	 -0.653409681
H	 2.699594182	 -0.920960318	 -0.827832145
H	 1.602992290	 -1.970991111	 0.085734603
H	 1.216489661	 -1.529218808	 -1.583719763
