24
0  1  0  1  0  1  12  12 -7.32386 -6.85216 -6.94784 -7.41954 -7.02218 -7.26491 -3.11431 -3.12291 -3.15374 -7.05412 -13.22909 17.24548 -4.98596 -6.08456
C	 -2.394979398	 0.177225769	 -2.006159006
H	 -2.969764046	 -0.016827821	 -2.908425451
H	 -1.345019156	 0.294018805	 -2.260947652
H	 -2.731900862	 1.114961302	 -1.567975851
C	 -2.528917394	 -0.913613891	 -0.972718588
O	 -1.778978971	 -0.984665105	 0.000000000
N	 -3.539195600	 -1.791544669	 -1.180201436
H	 -4.118350502	 -1.662114410	 -1.989597135
C	 -3.832378521	 -2.869956771	 -0.260407483
H	 -3.067141629	 -2.852230037	 0.508516716
H	 -4.807280703	 -2.736293696	 0.204495270
H	 -3.807759050	 -3.830661873	 -0.769953237
C	 0.643750227	 2.232062718	 0.502942922
H	 1.111045619	 2.637931295	 1.396729341
H	 -0.378629552	 1.937877907	 0.727669274
H	 0.642497072	 3.018621538	 -0.249296766
C	 1.492310115	 1.084644691	 0.000000000
O	 2.691593521	 1.220894848	 -0.221084903
N	 0.817126702	 -0.077227248	 -0.184204886
H	 -0.177897897	 -0.098466510	 0.000000000
C	 1.480032302	 -1.271340099	 -0.653409681
H	 2.521696285	 -1.019426828	 -0.827832145
H	 1.425094393	 -2.069457621	 0.085734603
H	 1.038591764	 -1.627685318	 -1.583719763
