24
0  1  0  1  0  1  12  12 -6.81697 -6.15844 -6.31851 -6.97704 -6.44616 -6.76606  0.24919  0.23528  0.20449 -6.61128 -14.06189 21.05738 -4.75374 -8.85304
C	 -0.521542030	 1.114417455	 2.006159006
H	 -0.066094367	 1.515168767	 2.908425451
H	 -1.147667888	 0.263521731	 2.260947652
H	 -1.165184091	 1.875067769	 1.567975851
C	 0.490121825	 0.684991332	 0.972718588
O	 0.176684770	 0.000000000	 0.000000000
N	 1.755571285	 1.120952535	 1.180201436
H	 1.933058843	 1.687230522	 1.989597135
C	 2.836095020	 0.835650341	 0.260407483
H	 2.438124773	 0.181799120	 -0.508516716
H	 3.207790494	 1.746771935	 -0.204495270
H	 3.655780310	 0.333976703	 0.769953237
C	 -2.576376836	 2.330529229	 -0.502942922
H	 -3.043672228	 2.736397805	 -1.396729341
H	 -1.553997057	 2.036344417	 -0.727669274
H	 -2.575123681	 3.117088049	 0.249296766
C	 -3.424936725	 1.183111201	 0.000000000
O	 -4.624220130	 1.319361359	 0.221084903
N	 -2.749753311	 0.021239262	 0.184204886
H	 -1.754728712	 0.000000000	 0.000000000
C	 -3.412658911	 -1.172873589	 0.653409681
H	 -4.454322894	 -0.920960318	 0.827832145
H	 -3.357721002	 -1.970991111	 -0.085734603
H	 -2.971218374	 -1.529218808	 1.583719763
