24
0  1  0  1  0  1  12  12  4.12546  5.40741  4.67276  3.39081  4.53421  3.85131 15.64832 15.63590 15.58407  3.84884 -35.40013 68.83569 -13.92605 -15.66067
C	 -0.900129390	 1.314227227	 -2.698313059
H	 -0.964112323	 1.433564212	 -3.777101172
H	 0.065307982	 0.890392842	 -2.435122119
H	 -0.965860670	 2.294790752	 -2.230292705
C	 -1.989650525	 0.436501368	 -2.134034172
O	 -1.944322080	 0.000000000	 -0.984665105
N	 -3.023772934	 0.181330114	 -2.970665580
H	 -2.997396315	 0.582997457	 -3.890046681
C	 -4.170523239	 -0.606010701	 -2.570655604
H	 -3.973381769	 -0.973277345	 -1.568958737
H	 -5.076273443	 -0.002803992	 -2.556767269
H	 -4.313283271	 -1.450315461	 -3.241450903
C	 0.238351500	 2.330529229	 0.207543390
H	 0.705646892	 2.736397805	 1.101329809
H	 -0.784028279	 2.036344417	 0.432269742
H	 0.237098345	 3.117088049	 -0.544696298
C	 1.086911388	 1.183111201	 -0.295399532
O	 2.286194794	 1.319361359	 -0.516484435
N	 0.411727975	 0.021239262	 -0.479604418
H	 -0.583296624	 0.000000000	 -0.295399532
C	 1.074633575	 -1.172873589	 -0.948809213
H	 2.116297558	 -0.920960318	 -1.123231677
H	 1.019695666	 -1.970991111	 -0.209664929
H	 0.633193037	 -1.529218808	 -1.879119295
