24
0  1  0  1  0  1  12  12 -6.81294 -6.57581 -6.48880 -6.72592 -6.55544 -6.65827 -4.29695 -4.30282 -4.31295 -6.77961 -6.08452  4.50228 -1.71174 -3.48563
C	 -2.816531540	 1.314227227	 -0.776456268
H	 -3.782780918	 1.433564212	 -1.260439479
H	 -2.105882814	 0.890392842	 -1.480954088
H	 -2.444079665	 2.294790752	 -0.485521133
C	 -2.872612257	 0.436501368	 0.449236156
O	 -1.854565224	 0.000000000	 0.984665105
N	 -4.114217514	 0.181330114	 0.926496729
H	 -4.897236594	 0.582997457	 0.443963356
C	 -4.341173866	 -0.606010701	 2.119616613
H	 -3.375108197	 -0.973277345	 2.449735525
H	 -4.782021317	 -0.002803992	 2.910963467
H	 -4.993479652	 -1.450315461	 1.907852778
C	 1.007104646	 2.330529229	 0.404476411
H	 1.474400038	 2.736397805	 1.298262830
H	 -0.015275133	 2.036344417	 0.629202763
H	 1.005851491	 3.117088049	 -0.347763277
C	 1.855664534	 1.183111201	 -0.098466511
O	 3.054947940	 1.319361359	 -0.319551414
N	 1.180481121	 0.021239262	 -0.282671397
H	 0.185456522	 0.000000000	 -0.098466511
C	 1.843386721	 -1.172873589	 -0.751876192
H	 2.885050704	 -0.920960318	 -0.926298656
H	 1.788448812	 -1.970991111	 -0.012731908
H	 1.401946183	 -1.529218808	 -1.682186274
