24
0  1  0  1  0  1  12  12 -2.84794 -2.46943 -2.50673 -2.88524 -2.60761 -2.77399  1.83417  1.81828  1.80435 -2.77539 -5.99630 10.21593 -1.68151 -5.31351
C	 0.029195840	 1.314227227	 1.713647954
H	 0.093178773	 1.433564212	 2.792436067
H	 -0.936241533	 0.890392842	 1.450457013
H	 0.094927119	 2.294790752	 1.245627600
C	 1.118716975	 0.436501368	 1.149369067
O	 1.073388530	 0.000000000	 0.000000000
N	 2.152839384	 0.181330114	 1.986000475
H	 2.126462764	 0.582997457	 2.905381576
C	 3.299589688	 -0.606010701	 1.585990499
H	 3.102448219	 -0.973277345	 0.584293632
H	 4.205339893	 -0.002803992	 1.572102164
H	 3.442349721	 -1.450315461	 2.256785798
C	 -2.486706460	 2.330529229	 -0.502942922
H	 -2.954001852	 2.736397805	 -1.396729341
H	 -1.464326681	 2.036344417	 -0.727669274
H	 -2.485453305	 3.117088049	 0.249296766
C	 -3.335266349	 1.183111201	 0.000000000
O	 -4.534549754	 1.319361359	 0.221084903
N	 -2.660082935	 0.021239262	 0.184204886
H	 -1.665058336	 0.000000000	 0.000000000
C	 -3.322988535	 -1.172873589	 0.653409681
H	 -4.364652518	 -0.920960318	 0.827832145
H	 -3.268050626	 -1.970991111	 -0.085734603
H	 -2.881547998	 -1.529218808	 1.583719763
