24
0  1  0  1  0  1  12  12  3.59026  4.61517  4.02259  2.99767  3.93095  3.37259 11.27716 11.26593 11.22135  3.39248 -32.36281 64.72153 -16.85373 -12.11251
C	 -2.394979398	 0.177225769	 -2.006159006
H	 -2.969764046	 -0.016827821	 -2.908425451
H	 -1.345019156	 0.294018805	 -2.260947652
H	 -2.731900862	 1.114961302	 -1.567975851
C	 -2.528917394	 -0.913613891	 -0.972718588
O	 -1.778978971	 -0.984665105	 0.000000000
N	 -3.539195600	 -1.791544669	 -1.180201436
H	 -4.118350502	 -1.662114410	 -1.989597135
C	 -3.832378521	 -2.869956771	 -0.260407483
H	 -3.067141629	 -2.852230037	 0.508516716
H	 -4.807280703	 -2.736293696	 0.204495270
H	 -3.807759050	 -3.830661873	 -0.769953237
C	 0.287954433	 2.035129697	 0.502942922
H	 0.755249825	 2.440998273	 1.396729341
H	 -0.734425346	 1.740944885	 0.727669274
H	 0.286701278	 2.821688517	 -0.249296766
C	 1.136514321	 0.887711669	 0.000000000
O	 2.335797727	 1.023961827	 -0.221084903
N	 0.461330908	 -0.274160270	 -0.184204886
H	 -0.533693691	 -0.295399532	 0.000000000
C	 1.124236508	 -1.468273121	 -0.653409681
H	 2.165900491	 -1.216359850	 -0.827832145
H	 1.069298599	 -2.266390643	 0.085734603
H	 0.682795970	 -1.824618340	 -1.583719763
