15
0  1  0  1  0  1   3  12 -2.35190 -1.81688 -1.96428 -2.49930 -2.03381 -2.31077  1.24471  1.23005  1.21144 -1.79637 -14.48282 23.96676 -5.98567 -5.29463
O	 2.131138741	 -0.058169453	 -0.156716075
H	 2.696116025	 -0.771128074	 -0.461915481
H	 2.710890359	 0.706024111	 -0.132817581
C	 -0.308838613	 -0.701456414	 2.259852688
H	 0.750784311	 -0.626463839	 2.029167180
H	 -0.536230630	 -1.708510203	 2.601636291
H	 -0.554161815	 -0.018600140	 3.069750204
C	 -1.199468979	 -0.383949841	 1.080053798
O	 -2.421857844	 -0.411542676	 1.170117604
N	 -0.537954342	 -0.072925014	 -0.064834967
H	 0.469274631	 -0.072087098	 -0.060655392
C	 -1.242657946	 0.253572993	 -1.282568230
H	 -2.304905943	 0.180423850	 -1.070667869
H	 -1.014838904	 1.266442042	 -1.612109015
H	 -0.990160081	 -0.440855767	 -2.082598755
