15
0  1  0  1  0  1   3  12 -1.78976 -1.29232 -1.41194 -1.90938 -1.48073 -1.73509  1.78671  1.77797  1.76245 -1.19413 -12.10297 21.09659 -5.12466 -5.06309
O	 0.030190194	 0.000000000	 0.000000000
H	 0.146652148	 -0.072957156	 0.949615644
H	 0.909521879	 -0.145164706	 -0.355496662
C	 -2.574613551	 2.355281206	 0.000000000
H	 -1.502854777	 2.174695936	 -0.019039994
H	 -2.829760645	 2.937018013	 0.882701955
H	 -2.860545220	 2.940601354	 -0.870662711
C	 -3.392994317	 1.084031439	 0.011629553
O	 -4.618731310	 1.107296823	 0.023245829
N	 -2.663939423	 -0.062084234	 0.009146070
H	 -1.658658233	 0.000000000	 0.000000000
C	 -3.294445584	 -1.361472162	 0.020782645
H	 -4.367725563	 -1.199611636	 0.043022782
H	 -3.039530041	 -1.932931960	 -0.870763271
H	 -3.002017582	 -1.933822542	 0.899950559
