15
0  1  0  1  0  1  12   3 -4.59727 -4.35228 -4.31965 -4.56464 -4.36159 -4.48621 -2.78490 -2.78667 -2.80380 -4.38846 -6.22118  5.99462 -1.60747 -2.55443
C	 0.915955319	 2.355281206	 0.000000000
H	 -0.155803455	 2.174695936	 0.019039994
H	 1.171102412	 2.937018013	 -0.882701955
H	 1.201886987	 2.940601354	 0.870662711
C	 1.734336085	 1.084031439	 -0.011629553
O	 2.960073077	 1.107296823	 -0.023245829
N	 1.005281191	 -0.062084234	 -0.009146070
H	 0.000000000	 -0.000000000	 -0.000000000
C	 1.635787352	 -1.361472162	 -0.020782645
H	 2.709067331	 -1.199611636	 -0.043022782
H	 1.380871809	 -1.932931960	 0.870763271
H	 1.343359349	 -1.933822542	 -0.899950559
O	 -1.856987982	 -0.000000000	 -0.988413412
H	 -1.973449936	 -0.072957156	 -1.938029055
H	 -2.736319667	 -0.145164706	 -0.632916749
