15
0  1  0  1  0  1   3  12 -4.76653 -4.60694 -4.56985 -4.72944 -4.60286 -4.67972 -3.63828 -3.64083 -3.64954 -4.66272 -4.70222  2.73961 -0.98443 -1.71568
O	 2.131138741	 -0.058169453	 -0.156716075
H	 2.696116025	 -0.771128074	 -0.461915481
H	 2.710890359	 0.706024111	 -0.132817581
C	 -0.932037655	 -0.706675531	 2.295875444
H	 0.127585269	 -0.631682956	 2.065189936
H	 -1.159429672	 -1.713729320	 2.637659047
H	 -1.177360857	 -0.023819257	 3.105772960
C	 -1.822668021	 -0.389168958	 1.116076554
O	 -3.045056886	 -0.416761793	 1.206140360
N	 -1.161153384	 -0.078144131	 -0.028812211
H	 -0.153924411	 -0.077306215	 -0.024632636
C	 -1.865856988	 0.248353876	 -1.246545474
H	 -2.928104985	 0.175204733	 -1.034645113
H	 -1.638037946	 1.261222925	 -1.576086259
H	 -1.613359123	 -0.446074884	 -2.046575999
