15
0  1  0  1  0  1   3  12  4.69442  5.50852  5.11519  4.30109  5.03049  4.60079  9.85338  9.83145  9.81247  5.08239 -23.52929 48.47400 -11.92281 -7.93951
O	 2.131138741	 -0.058169453	 -0.156716075
H	 2.696116025	 -0.771128074	 -0.461915481
H	 2.710890359	 0.706024111	 -0.132817581
C	 -0.101105600	 -0.699716708	 2.247845103
H	 0.958517324	 -0.624724133	 2.017159595
H	 -0.328497617	 -1.706770497	 2.589628706
H	 -0.346428802	 -0.016860434	 3.057742619
C	 -0.991735966	 -0.382210135	 1.068046213
O	 -2.214124831	 -0.409802970	 1.158110019
N	 -0.330221329	 -0.071185308	 -0.076842552
H	 0.677007644	 -0.070347392	 -0.072662977
C	 -1.034924933	 0.255312699	 -1.294575815
H	 -2.097172930	 0.182163556	 -1.082675454
H	 -0.807105891	 1.268181748	 -1.624116600
H	 -0.782427068	 -0.439116061	 -2.094606340
