15
0  1  0  1  0  1   3  12 -2.38635 -1.85878 -1.99134 -2.51890 -2.06109 -2.33383  1.28705  1.27316  1.25405 -1.87652 -14.47049 23.76837 -5.88404 -5.29036
O	 0.010703705	 0.000000000	 0.000000000
H	 0.545724384	 0.224650666	 0.764160294
H	 0.588850251	 0.166171300	 -0.747534983
C	 -2.578510849	 2.355281206	 0.000000000
H	 -1.506752075	 2.174695936	 -0.019039994
H	 -2.833657943	 2.937018013	 0.882701955
H	 -2.864442518	 2.940601354	 -0.870662711
C	 -3.396891615	 1.084031439	 0.011629553
O	 -4.622628608	 1.107296823	 0.023245829
N	 -2.667836721	 -0.062084234	 0.009146070
H	 -1.662555531	 0.000000000	 0.000000000
C	 -3.298342882	 -1.361472162	 0.020782645
H	 -4.371622861	 -1.199611636	 0.043022782
H	 -3.043427339	 -1.932931960	 -0.870763271
H	 -3.005914880	 -1.933822542	 0.899950559
