15
0  1  0  1  0  1   3  12 -4.35371 -4.08209 -4.06486 -4.33648 -4.11510 -4.25088 -2.33040 -2.33522 -2.35370 -4.06516 -6.31930  7.00127 -1.92663 -2.82050
O	 0.030190194	 0.000000000	 0.000000000
H	 0.146652148	 -0.072957156	 0.949615644
H	 0.909521879	 -0.145164706	 -0.355496662
C	 -2.891272631	 2.355281206	 0.000000000
H	 -1.819513857	 2.174695936	 -0.019039994
H	 -3.146419725	 2.937018013	 0.882701955
H	 -3.177204300	 2.940601354	 -0.870662711
C	 -3.709653397	 1.084031439	 0.011629553
O	 -4.935390390	 1.107296823	 0.023245829
N	 -2.980598503	 -0.062084234	 0.009146070
H	 -1.975317313	 0.000000000	 0.000000000
C	 -3.611104664	 -1.361472162	 0.020782645
H	 -4.684384643	 -1.199611636	 0.043022782
H	 -3.356189121	 -1.932931960	 -0.870763271
H	 -3.318676662	 -1.933822542	 0.899950559
