15
0  1  0  1  0  1  12   3 -4.41123 -4.25840 -4.22621 -4.37903 -4.25445 -4.33015 -3.21295 -3.21462 -3.22333 -4.33562 -4.55215  2.88628 -0.93242 -1.73733
C	 0.915955319	 2.355281206	 0.000000000
H	 -0.155803455	 2.174695936	 0.019039994
H	 1.171102412	 2.937018013	 -0.882701955
H	 1.201886987	 2.940601354	 0.870662711
C	 1.734336085	 1.084031439	 -0.011629553
O	 2.960073077	 1.107296823	 -0.023245829
N	 1.005281191	 -0.062084234	 -0.009146070
H	 0.000000000	 -0.000000000	 -0.000000000
C	 1.635787352	 -1.361472162	 -0.020782645
H	 2.709067331	 -1.199611636	 -0.043022782
H	 1.380871809	 -1.932931960	 0.870763271
H	 1.343359349	 -1.933822542	 -0.899950559
O	 -2.008476411	 -1.092456929	 -0.000000000
H	 -2.470539934	 -1.443473095	 -0.764160294
H	 -2.441458252	 -1.510060874	 0.747534983
