15
0  1  0  1  0  1   3  12 -4.28095 -4.10288 -4.06374 -4.24181 -4.10220 -4.18694 -2.92765 -2.93000 -2.93955 -4.13520 -4.44847  3.31922 -1.06799 -1.93796
O	 0.030204949	 0.000000000	 0.000000000
H	 0.910827197	 -0.072957156	 0.373948811
H	 0.162001651	 -0.145164706	 -0.939271908
C	 -3.102379422	 2.355281206	 0.000000000
H	 -2.030620648	 2.174695936	 -0.019039994
H	 -3.357526516	 2.937018013	 0.882701955
H	 -3.388311091	 2.940601354	 -0.870662711
C	 -3.920760188	 1.084031439	 0.011629553
O	 -5.146497181	 1.107296823	 0.023245829
N	 -3.191705294	 -0.062084234	 0.009146070
H	 -2.186424104	 0.000000000	 0.000000000
C	 -3.822211455	 -1.361472162	 0.020782645
H	 -4.895491434	 -1.199611636	 0.043022782
H	 -3.567295912	 -1.932931960	 -0.870763271
H	 -3.529783453	 -1.933822542	 0.899950559
