15
0  1  0  1  0  1   3  12 -4.39545 -4.17531 -4.14356 -4.36371 -4.18784 -4.29548 -2.73215 -2.73577 -2.74990 -4.18844 -5.25571  4.82572 -1.42295 -2.33550
O	 0.030190194	 0.000000000	 0.000000000
H	 0.146652148	 -0.072957156	 0.949615644
H	 0.909521879	 -0.145164706	 -0.355496662
C	 -2.996825658	 2.355281206	 -0.000000000
H	 -1.925066884	 2.174695936	 -0.019039994
H	 -3.251972752	 2.937018013	 0.882701955
H	 -3.282757327	 2.940601354	 -0.870662711
C	 -3.815206424	 1.084031439	 0.011629553
O	 -5.040943417	 1.107296823	 0.023245829
N	 -3.086151530	 -0.062084234	 0.009146070
H	 -2.080870340	 0.000000000	 -0.000000000
C	 -3.716657691	 -1.361472162	 0.020782645
H	 -4.789937670	 -1.199611636	 0.043022782
H	 -3.461742148	 -1.932931960	 -0.870763271
H	 -3.424229689	 -1.933822542	 0.899950559
