15
0  1  0  1  0  1  12   3 -4.32622 -4.02242 -4.02814 -4.33194 -4.07327 -4.23163 -2.11371 -2.12031 -2.14120 -4.06119 -7.90556  9.27735 -2.30577 -3.12721
C	 0.915955319	 2.355281206	 0.000000000
H	 -0.155803455	 2.174695936	 0.019039994
H	 1.171102412	 2.937018013	 -0.882701955
H	 1.201886987	 2.940601354	 0.870662711
C	 1.734336085	 1.084031439	 -0.011629553
O	 2.960073077	 1.107296823	 -0.023245829
N	 1.005281191	 -0.062084234	 -0.009146070
H	 0.000000000	 -0.000000000	 -0.000000000
C	 1.635787352	 -1.361472162	 -0.020782645
H	 2.709067331	 -1.199611636	 -0.043022782
H	 1.380871809	 -1.932931960	 0.870763271
H	 1.343359349	 -1.933822542	 -0.899950559
O	 -1.721551209	 -0.936391653	 -0.000000000
H	 -2.183614732	 -1.287407819	 -0.764160294
H	 -2.154533050	 -1.353995599	 0.747534983
