15
0  1  0  1  0  1   3  12  4.83363  5.59220  5.23943  4.48085  5.15797  4.76230  9.98681  9.97267  9.96269  5.40495 -19.98060 43.39199 -10.39866 -7.60777
O	 0.030204949	 0.000000000	 0.000000000
H	 0.910827197	 -0.072957156	 0.373948811
H	 0.162001651	 -0.145164706	 -0.939271908
C	 -2.363503071	 2.355281206	 0.000000000
H	 -1.291744297	 2.174695936	 -0.019039994
H	 -2.618650165	 2.937018013	 0.882701955
H	 -2.649434740	 2.940601354	 -0.870662711
C	 -3.181883837	 1.084031439	 0.011629553
O	 -4.407620830	 1.107296823	 0.023245829
N	 -2.452828943	 -0.062084234	 0.009146070
H	 -1.447547753	 0.000000000	 0.000000000
C	 -3.083335104	 -1.361472162	 0.020782645
H	 -4.156615083	 -1.199611636	 0.043022782
H	 -2.828419561	 -1.932931960	 -0.870763271
H	 -2.790907102	 -1.933822542	 0.899950559
