15
0  1  0  1  0  1   3  12 -4.63517 -4.47658 -4.42209 -4.58068 -4.45475 -4.53179 -3.47177 -3.47452 -3.48456 -4.54377 -4.69257  2.86983 -1.00307 -1.71796
O	 0.013845040	 0.000000000	 0.000000000
H	 0.475908563	 -0.351016167	 0.764160294
H	 0.446826880	 -0.417603946	 -0.747534983
C	 -3.206297196	 2.355281206	 0.000000000
H	 -2.134538422	 2.174695936	 -0.019039994
H	 -3.461444290	 2.937018013	 0.882701955
H	 -3.492228865	 2.940601354	 -0.870662711
C	 -4.024677962	 1.084031439	 0.011629553
O	 -5.250414955	 1.107296823	 0.023245829
N	 -3.295623068	 -0.062084234	 0.009146070
H	 -2.290341878	 0.000000000	 0.000000000
C	 -3.926129229	 -1.361472162	 0.020782645
H	 -4.999409208	 -1.199611636	 0.043022782
H	 -3.671213686	 -1.932931960	 -0.870763271
H	 -3.633701227	 -1.933822542	 0.899950559
