15
0  1  0  1  0  1   3  12 -4.05764 -3.91342 -3.87300 -4.01722 -3.90634 -3.97290 -2.95228 -2.95344 -2.95925 -3.95553 -3.81395  2.28217 -0.80960 -1.61415
O	 0.030204949	 0.000000000	 0.000000000
H	 0.910827197	 -0.072957156	 0.373948811
H	 0.162001651	 -0.145164706	 -0.939271908
C	 -3.207933187	 2.355281206	 0.000000000
H	 -2.136174413	 2.174695936	 -0.019039994
H	 -3.463080281	 2.937018013	 0.882701955
H	 -3.493864856	 2.940601354	 -0.870662711
C	 -4.026313953	 1.084031439	 0.011629553
O	 -5.252050946	 1.107296823	 0.023245829
N	 -3.297259059	 -0.062084234	 0.009146070
H	 -2.291977869	 0.000000000	 0.000000000
C	 -3.927765220	 -1.361472162	 0.020782645
H	 -5.001045199	 -1.199611636	 0.043022782
H	 -3.672849677	 -1.932931960	 -0.870763271
H	 -3.635337218	 -1.933822542	 0.899950559
