15
0  1  0  1  0  1  12   3  3.09152  3.81480  3.52783  2.80454  3.45423  3.07015  8.00700  7.99418  7.97408  3.62130 -20.19270 39.57884 -8.68476 -7.08008
C	 0.915955319	 2.355281206	 0.000000000
H	 -0.155803455	 2.174695936	 0.019039994
H	 1.171102412	 2.937018013	 -0.882701955
H	 1.201886987	 2.940601354	 0.870662711
C	 1.734336085	 1.084031439	 -0.011629553
O	 2.960073077	 1.107296823	 -0.023245829
N	 1.005281191	 -0.062084234	 -0.009146070
H	 0.000000000	 -0.000000000	 -0.000000000
C	 1.635787352	 -1.361472162	 -0.020782645
H	 2.709067331	 -1.199611636	 -0.043022782
H	 1.380871809	 -1.932931960	 0.870763271
H	 1.343359349	 -1.933822542	 -0.899950559
O	 -1.368306934	 -0.000000000	 -0.728304619
H	 -1.484768888	 -0.072957156	 -1.677920262
H	 -2.247638619	 -0.145164706	 -0.372807957
