15
0  1  0  1  0  1   3  12 -4.71778 -4.36222 -4.37849 -4.73406 -4.43300 -4.61782 -2.16966 -2.17747 -2.20301 -4.35830 -9.34945 11.65854 -3.07713 -3.59026
O	 0.010703705	 0.000000000	 0.000000000
H	 0.545724384	 0.224650666	 0.764160294
H	 0.588850251	 0.166171300	 -0.747534983
C	 -2.787668254	 2.355281206	 0.000000000
H	 -1.715909480	 2.174695936	 -0.019039994
H	 -3.042815347	 2.937018013	 0.882701955
H	 -3.073599923	 2.940601354	 -0.870662711
C	 -3.606049019	 1.084031439	 0.011629553
O	 -4.831786013	 1.107296823	 0.023245829
N	 -2.876994125	 -0.062084234	 0.009146070
H	 -1.871712936	 0.000000000	 0.000000000
C	 -3.507500287	 -1.361472162	 0.020782645
H	 -4.580780265	 -1.199611636	 0.043022782
H	 -3.252584743	 -1.932931960	 -0.870763271
H	 -3.215072285	 -1.933822542	 0.899950559
