15
0  1  0  1  0  1   3  12 -5.11441 -4.81822 -4.81180 -5.10798 -4.85941 -5.01302 -3.06577 -3.07270 -3.09619 -4.81007 -7.70814  8.17822 -2.30651 -2.97363
O	 2.131138741	 -0.058169453	 -0.156716075
H	 2.696116025	 -0.771128074	 -0.461915481
H	 2.710890359	 0.706024111	 -0.132817581
C	 -0.620438134	 -0.704065972	 2.277864066
H	 0.439184790	 -0.629073397	 2.047178558
H	 -0.847830151	 -1.711119761	 2.619647669
H	 -0.865761336	 -0.021209698	 3.087761582
C	 -1.511068500	 -0.386559399	 1.098065176
O	 -2.733457365	 -0.414152234	 1.188128982
N	 -0.849553863	 -0.075534572	 -0.046823589
H	 0.157675110	 -0.074696656	 -0.042644014
C	 -1.554257467	 0.250963435	 -1.264556852
H	 -2.616505464	 0.177814292	 -1.052656491
H	 -1.326438425	 1.263832484	 -1.594097637
H	 -1.301759602	 -0.443465325	 -2.064587377
