15
0  1  0  1  0  1   3  12 -1.80286 -1.30620 -1.42489 -1.92156 -1.49381 -1.74755  1.75696  1.74821  1.73292 -1.20754 -12.09371 21.07163 -5.12801 -5.05745
O	 0.030204949	 0.000000000	 0.000000000
H	 0.910827197	 -0.072957156	 0.373948811
H	 0.162001651	 -0.145164706	 -0.939271908
C	 -2.574610600	 2.355281206	 0.000000000
H	 -1.502851826	 2.174695936	 -0.019039994
H	 -2.829757694	 2.937018013	 0.882701955
H	 -2.860542269	 2.940601354	 -0.870662711
C	 -3.392991366	 1.084031439	 0.011629553
O	 -4.618728359	 1.107296823	 0.023245829
N	 -2.663936472	 -0.062084234	 0.009146070
H	 -1.658655282	 0.000000000	 0.000000000
C	 -3.294442633	 -1.361472162	 0.020782645
H	 -4.367722612	 -1.199611636	 0.043022782
H	 -3.039527090	 -1.932931960	 -0.870763271
H	 -3.002014631	 -1.933822542	 0.899950559
