15
0  1  0  1  0  1  12   3  3.06781  3.79089  3.50435  2.78128  3.43040  3.04668  7.96910  7.95594  7.93593  3.59928 -20.17094 39.60558 -8.75166 -7.08371
C	 0.915955319	 2.355281206	 0.000000000
H	 -0.155803455	 2.174695936	 0.019039994
H	 1.171102412	 2.937018013	 -0.882701955
H	 1.201886987	 2.940601354	 0.870662711
C	 1.734336085	 1.084031439	 -0.011629553
O	 2.960073077	 1.107296823	 -0.023245829
N	 1.005281191	 -0.062084234	 -0.009146070
H	 0.000000000	 -0.000000000	 -0.000000000
C	 1.635787352	 -1.361472162	 -0.020782645
H	 2.709067331	 -1.199611636	 -0.043022782
H	 1.380871809	 -1.932931960	 0.870763271
H	 1.343359349	 -1.933822542	 -0.899950559
O	 -1.365718779	 -0.000000000	 0.728304619
H	 -2.246341027	 -0.072957156	 0.354355808
H	 -1.497515481	 -0.145164706	 1.667576527
