24
0  1  0  1  0  1  12  12 -8.44750 -7.98049 -7.86537 -8.33238 -7.91373 -8.17275 -4.55986 -4.56396 -4.60422 -8.23150 -13.80648 17.88309 -6.20004 -6.10806
N	 0.639268254	 1.080721499	 -0.000055838
H	 -0.385093531	 1.185407399	 -0.000881644
C	 1.139588557	 -0.210258874	 0.000866562
O	 0.385093531	 -1.185407399	 0.000881644
C	 2.583285956	 -0.307424621	 0.001995977
H	 3.039156068	 -1.281971985	 0.002781798
C	 3.321465395	 0.822114191	 0.002070678
H	 4.401310549	 0.812599966	 0.002899169
N	 2.737676180	 2.055483889	 0.001124005
H	 3.291183072	 2.896287634	 0.001203663
C	 1.363041535	 2.258905597	 -0.000000000
O	 0.868358401	 3.366164715	 -0.000818981
N	 -4.202692922	 2.299081904	 0.001384610
H	 -4.084325723	 3.303018732	 -0.000088229
C	 -5.527559319	 1.830131711	 0.004141197
O	 -6.459499253	 2.615801292	 0.004645281
C	 -5.615565031	 0.382567838	 0.006162717
H	 -6.588967426	 -0.076543974	 0.008340639
C	 -4.485079357	 -0.355655114	 0.005282513
H	 -4.498113301	 -1.435571520	 0.006701941
N	 -3.239501103	 0.207982489	 0.002526355
H	 -2.390251278	 -0.368732997	 0.001931715
C	 -3.042376223	 1.563856944	 0.000486975
O	 -1.930037895	 2.083233430	 -0.001931715
