24
0  1  0  1  0  1  12  12 -8.64445 -8.42155 -8.22775 -8.45065 -8.25443 -8.37430 -7.06712 -7.06854 -7.08379 -8.55623 -8.37998  5.55418 -2.45905 -3.27137
N	 -2.684866939	 1.080721499	 0.000055838
H	 -1.660505154	 1.185407399	 0.000881644
C	 -3.185187243	 -0.210258874	 -0.000866562
O	 -2.430692216	 -1.185407399	 -0.000881644
C	 -4.628884641	 -0.307424621	 -0.001995977
H	 -5.084754753	 -1.281971985	 -0.002781798
C	 -5.367064080	 0.822114191	 -0.002070678
H	 -6.446909235	 0.812599966	 -0.002899169
N	 -4.783274865	 2.055483889	 -0.001124005
H	 -5.336781757	 2.896287634	 -0.001203663
C	 -3.408640220	 2.258905597	 0.000000000
O	 -2.913957086	 3.366164715	 0.000818981
N	 2.646424923	 1.441831688	 -0.001384610
H	 2.528057723	 2.445768515	 0.000088229
C	 3.971291320	 0.972881495	 -0.004141197
O	 4.903231254	 1.758551076	 -0.004645281
C	 4.059297032	 -0.474682378	 -0.006162717
H	 5.032699427	 -0.933794191	 -0.008340639
C	 2.928811357	 -1.212905331	 -0.005282513
H	 2.941845302	 -2.292821737	 -0.006701941
N	 1.683233103	 -0.649267728	 -0.002526355
H	 0.833983279	 -1.225983213	 -0.001931715
C	 1.486108224	 0.706606727	 -0.000486975
O	 0.373769895	 1.225983213	 0.001931715
