24
0  1  0  1  0  1  12  12 -8.28953 -7.92240 -7.77461 -8.14174 -7.81938 -8.02212 -5.04795 -5.05193 -5.09075 -8.11489 -10.69182 11.90798 -4.35122 -4.97982
N	 0.639268254	 1.080721499	 -0.000055838
H	 -0.385093531	 1.185407399	 -0.000881644
C	 1.139588557	 -0.210258874	 0.000866562
O	 0.385093531	 -1.185407399	 0.000881644
C	 2.583285956	 -0.307424621	 0.001995977
H	 3.039156068	 -1.281971985	 0.002781798
C	 3.321465395	 0.822114191	 0.002070678
H	 4.401310549	 0.812599966	 0.002899169
N	 2.737676180	 2.055483889	 0.001124005
H	 3.291183072	 2.896287634	 0.001203663
C	 1.363041535	 2.258905597	 -0.000000000
O	 0.868358401	 3.366164715	 -0.000818981
N	 -4.316384742	 2.344200336	 0.001384610
H	 -4.198017543	 3.348137164	 -0.000088229
C	 -5.641251139	 1.875250143	 0.004141197
O	 -6.573191073	 2.660919724	 0.004645281
C	 -5.729256851	 0.427686270	 0.006162717
H	 -6.702659246	 -0.031425542	 0.008340639
C	 -4.598771177	 -0.310536682	 0.005282513
H	 -4.611805121	 -1.390453088	 0.006701941
N	 -3.353192923	 0.253100921	 0.002526355
H	 -2.503943098	 -0.323614565	 0.001931715
C	 -3.156068043	 1.608975376	 0.000486975
O	 -2.043729715	 2.128351862	 -0.001931715
