24
0  1  0  1  0  1  12  12 -2.08253 -1.09135 -1.28814 -2.27932 -1.34641 -1.90730  4.59321  4.58804  4.53696 -2.64532 -31.50794 59.63466 -19.09928 -11.67275
N	 0.639268254	 1.080721499	 -0.000055838
H	 -0.385093531	 1.185407399	 -0.000881644
C	 1.139588557	 -0.210258874	 0.000866562
O	 0.385093531	 -1.185407399	 0.000881644
C	 2.583285956	 -0.307424621	 0.001995977
H	 3.039156068	 -1.281971985	 0.002781798
C	 3.321465395	 0.822114191	 0.002070678
H	 4.401310549	 0.812599966	 0.002899169
N	 2.737676180	 2.055483889	 0.001124005
H	 3.291183072	 2.896287634	 0.001203663
C	 1.363041535	 2.258905597	 -0.000000000
O	 0.868358401	 3.366164715	 -0.000818981
N	 -3.861617461	 2.163726606	 0.001384610
H	 -3.743250262	 3.167663434	 -0.000088229
C	 -5.186483858	 1.694776413	 0.004141197
O	 -6.118423792	 2.480445994	 0.004645281
C	 -5.274489570	 0.247212540	 0.006162717
H	 -6.247891965	 -0.211899272	 0.008340639
C	 -4.144003896	 -0.491010412	 0.005282513
H	 -4.157037840	 -1.570926818	 0.006701941
N	 -2.898425642	 0.072627191	 0.002526355
H	 -2.049175817	 -0.504088295	 0.001931715
C	 -2.701300762	 1.428501646	 0.000486975
O	 -1.588962434	 1.947878132	 -0.001931715
