24
0  1  0  1  0  1  12  12 -11.23561 -10.92796 -10.73617 -11.04382 -10.77141 -10.93908 -9.65567 -9.66026 -9.68441 -11.02833 -11.95442  9.26401 -4.35272 -3.98520
N	 0.752470908	 1.125839931	 -0.000055838
H	 -0.271890877	 1.230525831	 -0.000881644
C	 1.252791211	 -0.165140442	 0.000866562
O	 0.498296185	 -1.140288967	 0.000881644
C	 2.696488610	 -0.262306189	 0.001995977
H	 3.152358722	 -1.236853553	 0.002781798
C	 3.434668049	 0.867232623	 0.002070678
H	 4.514513203	 0.857718398	 0.002899169
N	 2.850878834	 2.100602321	 0.001124005
H	 3.404385726	 2.941406066	 0.001203663
C	 1.476244189	 2.304024029	 0.000000000
O	 0.981561055	 3.411283147	 -0.000818981
N	 -4.533990123	 -1.950351552	 0.001384610
H	 -5.344241320	 -1.345874137	 -0.000088229
C	 -4.790300541	 -3.332194605	 0.004141197
O	 -5.936680324	 -3.746443472	 0.004645281
C	 -3.580676309	 -4.132191724	 0.006162717
H	 -3.669775014	 -5.204738832	 0.008340639
C	 -2.376113642	 -3.522273887	 0.005282513
H	 -1.447395572	 -4.073519817	 0.006701941
N	 -2.241448998	 -2.161752675	 0.002526355
H	 -1.317373824	 -1.714638496	 0.001931715
C	 -3.317108280	 -1.313100294	 0.000486975
O	 -3.210732347	 -0.090098801	 -0.001931715
