24
0  1  0  1  0  1  12  12  9.14249 11.25584 10.37641  8.26305 10.29329  9.06808 20.38868 20.37108 20.24906  5.71250 -71.78285 152.35670 -52.24305 -22.61829
N	 0.639268254	 1.080721499	 -0.000055838
H	 -0.385093531	 1.185407399	 -0.000881644
C	 1.139588557	 -0.210258874	 0.000866562
O	 0.385093531	 -1.185407399	 0.000881644
C	 2.583285956	 -0.307424621	 0.001995977
H	 3.039156068	 -1.281971985	 0.002781798
C	 3.321465395	 0.822114191	 0.002070678
H	 4.401310549	 0.812599966	 0.002899169
N	 2.737676180	 2.055483889	 0.001124005
H	 3.291183072	 2.896287634	 0.001203663
C	 1.363041535	 2.258905597	 -0.000000000
O	 0.868358401	 3.366164715	 -0.000818981
N	 -3.323552234	 0.227388702	 -1.875366242
H	 -3.668757814	 1.156007098	 -2.076371464
C	 -4.115518935	 -0.841167277	 -2.329425397
O	 -5.154930836	 -0.626727428	 -2.928948072
C	 -3.555720435	 -2.138797221	 -2.003891333
H	 -4.088059946	 -3.023100911	 -2.308722845
C	 -2.387756162	 -2.212874214	 -1.330583217
H	 -1.930623814	 -3.154626228	 -1.065018718
N	 -1.696256634	 -1.101960604	 -0.934528315
H	 -0.809296815	 -1.176785953	 -0.423128456
C	 -2.134504146	 0.170823558	 -1.189905507
O	 -1.523937670	 1.176785953	 -0.840187651
