24
0  1  0  1  0  1  12  12 -15.41032 -14.61454 -14.48357 -15.27935 -14.55281 -15.00548 -10.36590 -10.37711 -10.45447 -15.02930 -25.54807 31.93343 -12.11986 -9.29480
N	 0.555916879	 1.080721499	 0.045062594
H	 -0.468444906	 1.185407399	 0.044236788
C	 1.056237182	 -0.210258874	 0.045984994
O	 0.301742156	 -1.185407399	 0.046000076
C	 2.499934581	 -0.307424621	 0.047114409
H	 2.955804693	 -1.281971985	 0.047900230
C	 3.238114020	 0.822114191	 0.047189110
H	 4.317959174	 0.812599966	 0.048017601
N	 2.654324805	 2.055483889	 0.046242437
H	 3.207831697	 2.896287634	 0.046322095
C	 1.279690160	 2.258905597	 0.045118432
O	 0.785007026	 3.366164715	 0.044299451
N	 -3.822577882	 0.227388702	 2.148475051
H	 -4.169256301	 1.156007098	 2.346929242
C	 -4.611787996	 -0.841167277	 2.607308756
O	 -5.650695813	 -0.626727428	 3.207704529
C	 -4.049967976	 -2.138797221	 2.285276066
H	 -4.580129565	 -3.023100911	 2.593879850
C	 -2.882883907	 -2.212874214	 1.610443393
H	 -2.424332131	 -3.154626228	 1.347337416
N	 -2.194140537	 -1.101960604	 1.209614686
H	 -1.307775358	 -1.176785953	 0.697184880
C	 -2.634427429	 0.170823558	 1.461459568
O	 -2.026279643	 1.176785953	 1.107552417
