24
0  1  0  1  0  1  12  12 29.81013 31.66992 31.02124 29.16145 30.95089 29.85942 38.01367 37.99879 37.86381 22.10622 -54.91974 153.14724 -55.90896 -20.21232
N	 -1.721421386	 1.080721499	 0.000055838
H	 -0.697059601	 1.185407399	 0.000881644
C	 -2.221741690	 -0.210258874	 -0.000866562
O	 -1.467246663	 -1.185407399	 -0.000881644
C	 -3.665439088	 -0.307424621	 -0.001995977
H	 -4.121309200	 -1.281971985	 -0.002781798
C	 -4.403618527	 0.822114191	 -0.002070678
H	 -5.483463682	 0.812599966	 -0.002899169
N	 -3.819829312	 2.055483889	 -0.001124005
H	 -4.373336204	 2.896287634	 -0.001203663
C	 -2.445194667	 2.258905597	 0.000000000
O	 -1.950511533	 3.366164715	 0.000818981
N	 2.646424923	 1.441831688	 -0.001384610
H	 2.528057723	 2.445768515	 0.000088229
C	 3.971291320	 0.972881495	 -0.004141197
O	 4.903231254	 1.758551076	 -0.004645281
C	 4.059297032	 -0.474682378	 -0.006162717
H	 5.032699427	 -0.933794191	 -0.008340639
C	 2.928811357	 -1.212905331	 -0.005282513
H	 2.941845302	 -2.292821737	 -0.006701941
N	 1.683233103	 -0.649267728	 -0.002526355
H	 0.833983279	 -1.225983213	 -0.001931715
C	 1.486108224	 0.706606727	 -0.000486975
O	 0.373769895	 1.225983213	 0.001931715
