24
0  1  0  1  0  1  12  12 -14.69090 -14.13599 -13.88273 -14.43764 -13.94157 -14.25634 -11.01801 -11.02408 -11.09039 -14.42304 -18.06734 17.44685 -7.00659 -6.79596
N	 -2.538336816	 1.080721499	 0.000055838
H	 -1.513975031	 1.185407399	 0.000881644
C	 -3.038657120	 -0.210258874	 -0.000866562
O	 -2.284162093	 -1.185407399	 -0.000881644
C	 -4.482354518	 -0.307424621	 -0.001995977
H	 -4.938224630	 -1.281971985	 -0.002781798
C	 -5.220533957	 0.822114191	 -0.002070678
H	 -6.300379112	 0.812599966	 -0.002899169
N	 -4.636744742	 2.055483889	 -0.001124005
H	 -5.190251634	 2.896287634	 -0.001203663
C	 -3.262110097	 2.258905597	 0.000000000
O	 -2.767426963	 3.366164715	 0.000818981
N	 2.238823000	 0.227388702	 1.243708188
H	 2.584028579	 1.156007098	 1.444713410
C	 3.030789701	 -0.841167277	 1.697767344
O	 4.070201601	 -0.626727428	 2.297290018
C	 2.470991201	 -2.138797221	 1.372233279
H	 3.003330712	 -3.023100911	 1.677064791
C	 1.303026928	 -2.212874214	 0.698925164
H	 0.845894580	 -3.154626228	 0.433360665
N	 0.611527400	 -1.101960604	 0.302870262
H	 -0.275432419	 -1.176785953	 -0.208529597
C	 1.049774911	 0.170823558	 0.558247454
O	 0.439208435	 1.176785953	 0.208529597
