24
0  1  0  1  0  1  12  12 -7.87581 -7.28111 -7.22839 -7.82310 -7.28009 -7.61010 -3.21520 -3.21976 -3.25788 -7.68660 -18.02048 26.79550 -8.92775 -7.53387
N	 0.639268254	 1.080721499	 -0.000055838
H	 -0.385093531	 1.185407399	 -0.000881644
C	 1.139588557	 -0.210258874	 0.000866562
O	 0.385093531	 -1.185407399	 0.000881644
C	 2.583285956	 -0.307424621	 0.001995977
H	 3.039156068	 -1.281971985	 0.002781798
C	 3.321465395	 0.822114191	 0.002070678
H	 4.401310549	 0.812599966	 0.002899169
N	 2.737676180	 2.055483889	 0.001124005
H	 3.291183072	 2.896287634	 0.001203663
C	 1.363041535	 2.258905597	 -0.000000000
O	 0.868358401	 3.366164715	 -0.000818981
N	 -4.089001101	 2.253963471	 0.001384610
H	 -3.970633902	 3.257900299	 -0.000088229
C	 -5.413867498	 1.785013278	 0.004141197
O	 -6.345807432	 2.570682859	 0.004645281
C	 -5.501873210	 0.337449405	 0.006162717
H	 -6.475275605	 -0.121662407	 0.008340639
C	 -4.371387536	 -0.400773547	 0.005282513
H	 -4.384421480	 -1.480689953	 0.006701941
N	 -3.125809282	 0.162864056	 0.002526355
H	 -2.276559457	 -0.413851430	 0.001931715
C	 -2.928684402	 1.518738511	 0.000486975
O	 -1.816346074	 2.038114997	 -0.001931715
