24
0  1  0  1  0  1  12  12 -11.41285 -10.91242 -10.80419 -11.30463 -10.84886 -11.12279 -8.78166 -8.78783 -8.81259 -11.15647 -18.05770 21.75011 -8.71312 -6.13576
N	 0.526065600	 1.035603067	 -0.000055838
H	 -0.498296185	 1.140288967	 -0.000881644
C	 1.026385903	 -0.255377306	 0.000866562
O	 0.271890877	 -1.230525831	 0.000881644
C	 2.470083302	 -0.352543053	 0.001995977
H	 2.925953414	 -1.327090417	 0.002781798
C	 3.208262741	 0.776995759	 0.002070678
H	 4.288107895	 0.767481534	 0.002899169
N	 2.624473526	 2.010365457	 0.001124005
H	 3.177980418	 2.851169202	 0.001203663
C	 1.249838881	 2.213787165	 0.000000000
O	 0.755155747	 3.321046283	 -0.000818981
N	 -4.533990123	 -1.950351552	 0.001384610
H	 -5.344241320	 -1.345874137	 -0.000088229
C	 -4.790300541	 -3.332194605	 0.004141197
O	 -5.936680324	 -3.746443472	 0.004645281
C	 -3.580676309	 -4.132191724	 0.006162717
H	 -3.669775014	 -5.204738832	 0.008340639
C	 -2.376113642	 -3.522273887	 0.005282513
H	 -1.447395572	 -4.073519817	 0.006701941
N	 -2.241448998	 -2.161752675	 0.002526355
H	 -1.317373824	 -1.714638496	 0.001931715
C	 -3.317108280	 -1.313100294	 0.000486975
O	 -3.210732347	 -0.090098801	 -0.001931715
