24
0  1  0  1  0  1  12  12 10.76467 12.90777 11.99670  9.85360 11.91254 10.67193 22.32129 22.30248 22.18328  7.32348 -73.20406 154.86451 -51.49841 -22.83856
N	 -1.877874823	 1.080721499	 0.000055838
H	 -0.853513038	 1.185407399	 0.000881644
C	 -2.378195127	 -0.210258874	 -0.000866562
O	 -1.623700100	 -1.185407399	 -0.000881644
C	 -3.821892525	 -0.307424621	 -0.001995977
H	 -4.277762637	 -1.281971985	 -0.002781798
C	 -4.560071964	 0.822114191	 -0.002070678
H	 -5.639917119	 0.812599966	 -0.002899169
N	 -3.976282749	 2.055483889	 -0.001124005
H	 -4.529789641	 2.896287634	 -0.001203663
C	 -2.601648104	 2.258905597	 0.000000000
O	 -2.106964970	 3.366164715	 0.000818981
N	 2.237915511	 0.227388702	 -1.246106403
H	 2.584593929	 1.156007098	 -1.444560593
C	 3.027125625	 -0.841167277	 -1.704940107
O	 4.066033441	 -0.626727428	 -2.305335881
C	 2.465305605	 -2.138797221	 -1.382907418
H	 2.995467194	 -3.023100911	 -1.691511202
C	 1.298221536	 -2.212874214	 -0.708074744
H	 0.839669760	 -3.154626228	 -0.444968767
N	 0.609478166	 -1.101960604	 -0.307246037
H	 -0.276887013	 -1.176785953	 0.205183769
C	 1.049765057	 0.170823558	 -0.559090919
O	 0.441617271	 1.176785953	 -0.205183769
