24
0  1  0  1  0  1  12  12 -11.64428 -11.25159 -11.08789 -11.48059 -11.12783 -11.34295 -9.59007 -9.59558 -9.62210 -11.39142 -14.56473 14.21744 -6.11421 -4.92992
N	 0.639268254	 1.080721499	 -0.000055838
H	 -0.385093531	 1.185407399	 -0.000881644
C	 1.139588557	 -0.210258874	 0.000866562
O	 0.385093531	 -1.185407399	 0.000881644
C	 2.583285956	 -0.307424621	 0.001995977
H	 3.039156068	 -1.281971985	 0.002781798
C	 3.321465395	 0.822114191	 0.002070678
H	 4.401310549	 0.812599966	 0.002899169
N	 2.737676180	 2.055483889	 0.001124005
H	 3.291183072	 2.896287634	 0.001203663
C	 1.363041535	 2.258905597	 0.000000000
O	 0.868358401	 3.366164715	 -0.000818981
N	 -4.533990123	 -1.950351552	 0.001384610
H	 -5.344241320	 -1.345874137	 -0.000088229
C	 -4.790300541	 -3.332194605	 0.004141197
O	 -5.936680324	 -3.746443472	 0.004645281
C	 -3.580676309	 -4.132191724	 0.006162717
H	 -3.669775014	 -5.204738832	 0.008340639
C	 -2.376113642	 -3.522273887	 0.005282513
H	 -1.447395572	 -4.073519817	 0.006701941
N	 -2.241448998	 -2.161752675	 0.002526355
H	 -1.317373824	 -1.714638496	 0.001931715
C	 -3.317108280	 -1.313100294	 0.000486975
O	 -3.210732347	 -0.090098801	 -0.001931715
