24
0  1  0  1  0  1  12  12 -13.79946 -12.82341 -12.78470 -13.76075 -12.86015 -13.41198 -7.69679 -7.71207 -7.78597 -13.48725 -31.40623 44.93133 -15.82829 -11.18404
N	 -2.255295308	 1.080721499	 0.000055838
H	 -1.230933523	 1.185407399	 0.000881644
C	 -2.755615612	 -0.210258874	 -0.000866562
O	 -2.001120585	 -1.185407399	 -0.000881644
C	 -4.199313010	 -0.307424621	 -0.001995977
H	 -4.655183122	 -1.281971985	 -0.002781798
C	 -4.937492449	 0.822114191	 -0.002070678
H	 -6.017337604	 0.812599966	 -0.002899169
N	 -4.353703234	 2.055483889	 -0.001124005
H	 -4.907210126	 2.896287634	 -0.001203663
C	 -2.979068589	 2.258905597	 0.000000000
O	 -2.484385455	 3.366164715	 0.000818981
N	 2.237915511	 0.227388702	 -1.246106403
H	 2.584593929	 1.156007098	 -1.444560593
C	 3.027125625	 -0.841167277	 -1.704940107
O	 4.066033441	 -0.626727428	 -2.305335881
C	 2.465305605	 -2.138797221	 -1.382907418
H	 2.995467194	 -3.023100911	 -1.691511202
C	 1.298221536	 -2.212874214	 -0.708074744
H	 0.839669760	 -3.154626228	 -0.444968767
N	 0.609478166	 -1.101960604	 -0.307246037
H	 -0.276887013	 -1.176785953	 0.205183769
C	 1.049765057	 0.170823558	 -0.559090919
O	 0.441617271	 1.176785953	 -0.205183769
