24
0  1  0  1  0  1  12  12 24.34751 26.12691 25.27037 23.49096 25.19027 24.16541 34.46262 34.45587 34.35526 20.15441 -61.51293 140.10056 -39.08536 -19.34787
N	 -2.444005551	 1.080721499	 0.000055838
H	 -1.419643766	 1.185407399	 0.000881644
C	 -2.944325855	 -0.210258874	 -0.000866562
O	 -2.189830828	 -1.185407399	 -0.000881644
C	 -4.388023253	 -0.307424621	 -0.001995977
H	 -4.843893365	 -1.281971985	 -0.002781798
C	 -5.126202692	 0.822114191	 -0.002070678
H	 -6.206047847	 0.812599966	 -0.002899169
N	 -4.542413477	 2.055483889	 -0.001124005
H	 -5.095920369	 2.896287634	 -0.001203663
C	 -3.167778832	 2.258905597	 0.000000000
O	 -2.673095698	 3.366164715	 0.000818981
N	 2.182211318	 -1.047982903	 -0.001384610
H	 2.992462514	 -0.443505488	 0.000088229
C	 2.438521736	 -2.429825956	 -0.004141197
O	 3.584901519	 -2.844074823	 -0.004645281
C	 1.228897504	 -3.229823075	 -0.006162717
H	 1.317996209	 -4.302370184	 -0.008340639
C	 0.024334836	 -2.619905239	 -0.005282513
H	 -0.904383233	 -3.171151169	 -0.006701941
N	 -0.110329808	 -1.259384027	 -0.002526355
H	 -1.034404981	 -0.812269847	 -0.001931715
C	 0.965329475	 -0.410731646	 -0.000486975
O	 0.858953541	 0.812269847	 0.001931715
