24
0  1  0  1  0  1  12  12 31.99532 33.93067 33.18006 31.24471 33.10419 31.96345 39.52909 39.51564 39.35983 23.37774 -61.89179 168.38587 -62.15334 -20.96301
N	 0.639268254	 1.080721499	 -0.000055838
H	 -0.385093531	 1.185407399	 -0.000881644
C	 1.139588557	 -0.210258874	 0.000866562
O	 0.385093531	 -1.185407399	 0.000881644
C	 2.583285956	 -0.307424621	 0.001995977
H	 3.039156068	 -1.281971985	 0.002781798
C	 3.321465395	 0.822114191	 0.002070678
H	 4.401310549	 0.812599966	 0.002899169
N	 2.737676180	 2.055483889	 0.001124005
H	 3.291183072	 2.896287634	 0.001203663
C	 1.363041535	 2.258905597	 -0.000000000
O	 0.868358401	 3.366164715	 -0.000818981
N	 -3.854774197	 -1.679640957	 0.001384610
H	 -4.665025394	 -1.075163542	 -0.000088229
C	 -4.111084615	 -3.061484010	 0.004141197
O	 -5.257464398	 -3.475732877	 0.004645281
C	 -2.901460383	 -3.861481129	 0.006162717
H	 -2.990559088	 -4.934028237	 0.008340639
C	 -1.696897716	 -3.251563292	 0.005282513
H	 -0.768179646	 -3.802809222	 0.006701941
N	 -1.562233072	 -1.891042080	 0.002526355
H	 -0.638157898	 -1.443927901	 0.001931715
C	 -2.637892354	 -1.042389699	 0.000486975
O	 -2.531516421	 0.180611794	 -0.001931715
