24
0  1  0  1  0  1  12  12 -14.68419 -14.12954 -13.87664 -14.43128 -13.93550 -14.25007 -11.01030 -11.01637 -11.08263 -14.41635 -18.05943 17.43725 -6.99941 -6.79476
N	 -2.538360672	 1.080721499	 0.000055838
H	 -1.513998887	 1.185407399	 0.000881644
C	 -3.038680976	 -0.210258874	 -0.000866562
O	 -2.284185949	 -1.185407399	 -0.000881644
C	 -4.482378374	 -0.307424621	 -0.001995977
H	 -4.938248486	 -1.281971985	 -0.002781798
C	 -5.220557813	 0.822114191	 -0.002070678
H	 -6.300402968	 0.812599966	 -0.002899169
N	 -4.636768598	 2.055483889	 -0.001124005
H	 -5.190275490	 2.896287634	 -0.001203663
C	 -3.262133953	 2.258905597	 0.000000000
O	 -2.767450819	 3.366164715	 0.000818981
N	 2.237915511	 0.227388702	 -1.246106403
H	 2.584593929	 1.156007098	 -1.444560593
C	 3.027125625	 -0.841167277	 -1.704940107
O	 4.066033441	 -0.626727428	 -2.305335881
C	 2.465305605	 -2.138797221	 -1.382907418
H	 2.995467194	 -3.023100911	 -1.691511202
C	 1.298221536	 -2.212874214	 -0.708074744
H	 0.839669760	 -3.154626228	 -0.444968767
N	 0.609478166	 -1.101960604	 -0.307246037
H	 -0.276887013	 -1.176785953	 0.205183769
C	 1.049765057	 0.170823558	 -0.559090919
O	 0.441617271	 1.176785953	 -0.205183769
