24
0  1  0  1  0  1  12  12 -14.00149 -13.54713 -13.27482 -13.72918 -13.32827 -13.58301 -10.91731 -10.92108 -10.97552 -13.80565 -15.30450 12.69595 -5.40901 -5.78809
N	 -2.632668082	 1.080721499	 0.000055838
H	 -1.608306297	 1.185407399	 0.000881644
C	 -3.132988386	 -0.210258874	 -0.000866562
O	 -2.378493359	 -1.185407399	 -0.000881644
C	 -4.576685784	 -0.307424621	 -0.001995977
H	 -5.032555895	 -1.281971985	 -0.002781798
C	 -5.314865222	 0.822114191	 -0.002070678
H	 -6.394710378	 0.812599966	 -0.002899169
N	 -4.731076008	 2.055483889	 -0.001124005
H	 -5.284582900	 2.896287634	 -0.001203663
C	 -3.356441363	 2.258905597	 0.000000000
O	 -2.861758229	 3.366164715	 0.000818981
N	 2.238823000	 0.227388702	 1.243708188
H	 2.584028579	 1.156007098	 1.444713410
C	 3.030789701	 -0.841167277	 1.697767344
O	 4.070201601	 -0.626727428	 2.297290018
C	 2.470991201	 -2.138797221	 1.372233279
H	 3.003330712	 -3.023100911	 1.677064791
C	 1.303026928	 -2.212874214	 0.698925164
H	 0.845894580	 -3.154626228	 0.433360665
N	 0.611527400	 -1.101960604	 0.302870262
H	 -0.275432419	 -1.176785953	 -0.208529597
C	 1.049774911	 0.170823558	 0.558247454
O	 0.439208435	 1.176785953	 0.208529597
