24
0  1  0  1  0  1  12  12 -7.00894 -6.78498 -6.62791 -6.85187 -6.66622 -6.78409 -4.75402 -4.75910 -4.78409 -6.94503 -6.62582  5.25010 -2.21586 -3.35345
N	 0.639268254	 1.080721499	 -0.000055838
H	 -0.385093531	 1.185407399	 -0.000881644
C	 1.139588557	 -0.210258874	 0.000866562
O	 0.385093531	 -1.185407399	 0.000881644
C	 2.583285956	 -0.307424621	 0.001995977
H	 3.039156068	 -1.281971985	 0.002781798
C	 3.321465395	 0.822114191	 0.002070678
H	 4.401310549	 0.812599966	 0.002899169
N	 2.737676180	 2.055483889	 0.001124005
H	 3.291183072	 2.896287634	 0.001203663
C	 1.363041535	 2.258905597	 -0.000000000
O	 0.868358401	 3.366164715	 -0.000818981
N	 -4.543768383	 2.434437201	 0.001384610
H	 -4.425401184	 3.438374029	 -0.000088229
C	 -5.868634780	 1.965487008	 0.004141197
O	 -6.800574714	 2.751156589	 0.004645281
C	 -5.956640492	 0.517923135	 0.006162717
H	 -6.930042887	 0.058811323	 0.008340639
C	 -4.826154818	 -0.220299817	 0.005282513
H	 -4.839188762	 -1.300216223	 0.006701941
N	 -3.580576564	 0.343337786	 0.002526355
H	 -2.731326739	 -0.233377700	 0.001931715
C	 -3.383451684	 1.699212241	 0.000486975
O	 -2.271113356	 2.218588727	 -0.001931715
