24
0  1  0  1  0  1  12  12 -16.99737 -16.35598 -16.10533 -16.74672 -16.17152 -16.53677 -13.13134 -13.14477 -13.22230 -16.61540 -21.69479 21.99325 -9.41340 -7.50046
N	 -0.729999134	 0.022767626	 0.000914648
H	 0.298422555	 0.074004465	 0.001623038
C	 -1.296824528	 -1.240426820	 0.001502336
O	 -0.594098857	 -2.253517508	 0.002633705
C	 -2.743622291	 -1.262331701	 0.000479378
H	 -3.249590454	 -2.211835169	 0.000833106
C	 -3.422019974	 -0.095909207	 -0.000922590
H	 -4.500897091	 -0.049216027	 -0.001745463
N	 -2.774836844	 1.105408947	 -0.001418075
H	 -3.283838068	 1.973877391	 -0.002485743
C	 -1.391478664	 1.237019779	 -0.000525382
O	 -0.839843713	 2.317035280	 -0.001001251
N	 4.242842442	 -1.090863476	 0.000499784
H	 4.690086225	 -0.184290276	 0.000886600
C	 5.098890212	 -2.205481266	 -0.001000093
O	 6.308342235	 -2.053776851	 -0.001749292
C	 4.384671782	 -3.467654804	 -0.001504487
H	 4.951256331	 -4.382685554	 -0.002643122
C	 3.034502806	 -3.471472676	 -0.000544391
H	 2.457539569	 -4.384437442	 -0.000863068
N	 2.296511396	 -2.320591837	 0.000906021
H	 1.270175136	 -2.342034636	 0.001583090
C	 2.869282334	 -1.075926796	 0.001456668
O	 2.218961450	 -0.034708491	 0.002693061
