24
0  1  0  1  0  1  12  12 11.07350 13.39737 12.50571 10.18184 12.42018 11.06452 21.75514 21.73865 21.59259  5.58513 -80.99795 177.72648 -66.44963 -24.69377
N	 -0.729999134	 0.022767626	 0.000914648
H	 0.298422555	 0.074004465	 0.001623038
C	 -1.296824528	 -1.240426820	 0.001502336
O	 -0.594098857	 -2.253517508	 0.002633705
C	 -2.743622291	 -1.262331701	 0.000479378
H	 -3.249590454	 -2.211835169	 0.000833106
C	 -3.422019974	 -0.095909207	 -0.000922590
H	 -4.500897091	 -0.049216027	 -0.001745463
N	 -2.774836844	 1.105408947	 -0.001418075
H	 -3.283838068	 1.973877391	 -0.002485743
C	 -1.391478664	 1.237019779	 -0.000525382
O	 -0.839843713	 2.317035280	 -0.001001251
N	 3.612040294	 -1.057991796	 0.000496549
H	 4.059284077	 -0.151418596	 0.000883365
C	 4.468088064	 -2.172609586	 -0.001003328
O	 5.677540087	 -2.020905171	 -0.001752527
C	 3.753869634	 -3.434783124	 -0.001507722
H	 4.320454183	 -4.349813874	 -0.002646357
C	 2.403700658	 -3.438600996	 -0.000547626
H	 1.826737421	 -4.351565762	 -0.000866303
N	 1.665709248	 -2.287720157	 0.000902786
H	 0.639372988	 -2.309162956	 0.001579855
C	 2.238480186	 -1.043055116	 0.001453433
O	 1.588159302	 -0.001836811	 0.002689826
