24
0  1  0  1  0  1  12  12 -14.51721 -13.55823 -13.52907 -14.48805 -13.60353 -14.14671 -8.55839 -8.57228 -8.64770 -14.18010 -30.97431 43.82551 -16.01419 -11.01711
N	 0.472608648	 1.080721499	 -0.090292703
H	 -0.551753137	 1.185407399	 -0.091118509
C	 0.972928951	 -0.210258874	 -0.089370303
O	 0.218433925	 -1.185407399	 -0.089355221
C	 2.416626350	 -0.307424621	 -0.088240888
H	 2.872496462	 -1.281971985	 -0.087455067
C	 3.154805789	 0.822114191	 -0.088166187
H	 4.234650943	 0.812599966	 -0.087337696
N	 2.571016574	 2.055483889	 -0.089112860
H	 3.124523466	 2.896287634	 -0.089033202
C	 1.196381929	 2.258905597	 -0.090236865
O	 0.701698795	 3.366164715	 -0.091055846
N	 -3.823531052	 0.227388702	 -2.146076837
H	 -4.168736632	 1.156007098	 -2.347082059
C	 -4.615497753	 -0.841167277	 -2.600135992
O	 -5.654909654	 -0.626727428	 -3.199658667
C	 -4.055699253	 -2.138797221	 -2.274601928
H	 -4.588038764	 -3.023100911	 -2.579433440
C	 -2.887734980	 -2.212874214	 -1.601293812
H	 -2.430602632	 -3.154626228	 -1.335729313
N	 -2.196235452	 -1.101960604	 -1.205238910
H	 -1.309275633	 -1.176785953	 -0.693839051
C	 -2.634482964	 0.170823558	 -1.460616102
O	 -2.023916488	 1.176785953	 -1.110898246
