24
0  1  0  1  0  1  12  12 -14.25636 -13.81074 -13.55373 -13.99936 -13.60585 -13.85651 -11.24933 -11.25376 -11.30867 -14.05054 -15.15617 12.25151 -5.46779 -5.67809
N	 0.805971004	 1.080721499	 -0.090292703
H	 -0.218390781	 1.185407399	 -0.091118509
C	 1.306291307	 -0.210258874	 -0.089370303
O	 0.551796281	 -1.185407399	 -0.089355221
C	 2.749988706	 -0.307424621	 -0.088240888
H	 3.205858818	 -1.281971985	 -0.087455067
C	 3.488168145	 0.822114191	 -0.088166187
H	 4.568013299	 0.812599966	 -0.087337696
N	 2.904378930	 2.055483889	 -0.089112860
H	 3.457885822	 2.896287634	 -0.089033202
C	 1.529744285	 2.258905597	 -0.090236865
O	 1.035061151	 3.366164715	 -0.091055846
N	 -3.822577882	 0.227388702	 2.148475051
H	 -4.169256301	 1.156007098	 2.346929242
C	 -4.611787996	 -0.841167277	 2.607308756
O	 -5.650695813	 -0.626727428	 3.207704529
C	 -4.049967976	 -2.138797221	 2.285276066
H	 -4.580129565	 -3.023100911	 2.593879850
C	 -2.882883907	 -2.212874214	 1.610443393
H	 -2.424332131	 -3.154626228	 1.347337416
N	 -2.194140537	 -1.101960604	 1.209614686
H	 -1.307775358	 -1.176785953	 0.697184880
C	 -2.634427429	 0.170823558	 1.461459568
O	 -2.026279643	 1.176785953	 1.107552417
