24
0  1  0  1  0  1  12  12 -9.66752 -9.27736 -9.05889 -9.44904 -9.10763 -9.31503 -6.79843 -6.79805 -6.82179 -9.37752 -12.31735 12.87373 -4.79587 -5.13802
N	 -2.444005551	 1.080721499	 0.000055838
H	 -1.419643766	 1.185407399	 0.000881644
C	 -2.944325855	 -0.210258874	 -0.000866562
O	 -2.189830828	 -1.185407399	 -0.000881644
C	 -4.388023253	 -0.307424621	 -0.001995977
H	 -4.843893365	 -1.281971985	 -0.002781798
C	 -5.126202692	 0.822114191	 -0.002070678
H	 -6.206047847	 0.812599966	 -0.002899169
N	 -4.542413477	 2.055483889	 -0.001124005
H	 -5.095920369	 2.896287634	 -0.001203663
C	 -3.167778832	 2.258905597	 0.000000000
O	 -2.673095698	 3.366164715	 0.000818981
N	 2.918073423	 -1.047982903	 -0.001384610
H	 3.728324619	 -0.443505488	 0.000088229
C	 3.174383841	 -2.429825956	 -0.004141197
O	 4.320763624	 -2.844074823	 -0.004645281
C	 1.964759609	 -3.229823075	 -0.006162717
H	 2.053858314	 -4.302370184	 -0.008340639
C	 0.760196941	 -2.619905239	 -0.005282513
H	 -0.168521128	 -3.171151169	 -0.006701941
N	 0.625532297	 -1.259384027	 -0.002526355
H	 -0.298542876	 -0.812269847	 -0.001931715
C	 1.701191580	 -0.410731646	 -0.000486975
O	 1.594815646	 0.812269847	 0.001931715
