24
0  1  0  1  0  1  12  12 -14.25778 -13.81182 -13.55435 -14.00031 -13.60662 -13.85741 -11.24952 -11.25395 -11.30890 -14.05176 -15.16028 12.25550 -5.46820 -5.67878
N	 0.805927860	 1.080721499	 0.090181027
H	 -0.218433925	 1.185407399	 0.089355221
C	 1.306248163	 -0.210258874	 0.091103427
O	 0.551753137	 -1.185407399	 0.091118509
C	 2.749945562	 -0.307424621	 0.092232842
H	 3.205815674	 -1.281971985	 0.093018663
C	 3.488125001	 0.822114191	 0.092307543
H	 4.567970155	 0.812599966	 0.093136034
N	 2.904335786	 2.055483889	 0.091360870
H	 3.457842678	 2.896287634	 0.091440528
C	 1.529701141	 2.258905597	 0.090236865
O	 1.035018007	 3.366164715	 0.089417884
N	 -3.823531052	 0.227388702	 -2.146076837
H	 -4.168736632	 1.156007098	 -2.347082059
C	 -4.615497753	 -0.841167277	 -2.600135992
O	 -5.654909654	 -0.626727428	 -3.199658667
C	 -4.055699253	 -2.138797221	 -2.274601928
H	 -4.588038764	 -3.023100911	 -2.579433440
C	 -2.887734980	 -2.212874214	 -1.601293812
H	 -2.430602632	 -3.154626228	 -1.335729313
N	 -2.196235452	 -1.101960604	 -1.205238910
H	 -1.309275633	 -1.176785953	 -0.693839051
C	 -2.634482964	 0.170823558	 -1.460616102
O	 -2.023916488	 1.176785953	 -1.110898246
