24
0  1  0  1  0  1  12  12 -15.41165 -14.61583 -14.48423 -15.28005 -14.55337 -15.00615 -10.36674 -10.37795 -10.45537 -15.03059 -25.55270 31.93431 -12.11753 -9.29466
N	 0.555938451	 1.080721499	 -0.045174270
H	 -0.468423334	 1.185407399	 -0.046000076
C	 1.056258754	 -0.210258874	 -0.044251870
O	 0.301763728	 -1.185407399	 -0.044236788
C	 2.499956153	 -0.307424621	 -0.043122455
H	 2.955826265	 -1.281971985	 -0.042336634
C	 3.238135592	 0.822114191	 -0.043047754
H	 4.317980746	 0.812599966	 -0.042219263
N	 2.654346377	 2.055483889	 -0.043994427
H	 3.207853269	 2.896287634	 -0.043914769
C	 1.279711732	 2.258905597	 -0.045118432
O	 0.785028598	 3.366164715	 -0.045937413
N	 -3.823531052	 0.227388702	 -2.146076837
H	 -4.168736632	 1.156007098	 -2.347082059
C	 -4.615497753	 -0.841167277	 -2.600135992
O	 -5.654909654	 -0.626727428	 -3.199658667
C	 -4.055699253	 -2.138797221	 -2.274601928
H	 -4.588038764	 -3.023100911	 -2.579433440
C	 -2.887734980	 -2.212874214	 -1.601293812
H	 -2.430602632	 -3.154626228	 -1.335729313
N	 -2.196235452	 -1.101960604	 -1.205238910
H	 -1.309275633	 -1.176785953	 -0.693839051
C	 -2.634482964	 0.170823558	 -1.460616102
O	 -2.023916488	 1.176785953	 -1.110898246
