24
0  1  0  1  0  1  12  12 -17.10383 -16.19388 -16.07565 -16.98560 -16.15203 -16.66670 -11.81776 -11.83520 -11.91287 -16.71623 -30.67748 40.27773 -15.97121 -10.34527
N	 -0.729999134	 0.022767626	 0.000914648
H	 0.298422555	 0.074004465	 0.001623038
C	 -1.296824528	 -1.240426820	 0.001502336
O	 -0.594098857	 -2.253517508	 0.002633705
C	 -2.743622291	 -1.262331701	 0.000479378
H	 -3.249590454	 -2.211835169	 0.000833106
C	 -3.422019974	 -0.095909207	 -0.000922590
H	 -4.500897091	 -0.049216027	 -0.001745463
N	 -2.774836844	 1.105408947	 -0.001418075
H	 -3.283838068	 1.973877391	 -0.002485743
C	 -1.391478664	 1.237019779	 -0.000525382
O	 -0.839843713	 2.317035280	 -0.001001251
N	 4.062613256	 -1.081471568	 0.000498860
H	 4.509857039	 -0.174898368	 0.000885676
C	 4.918661026	 -2.196089358	 -0.001001017
O	 6.128113049	 -2.044384943	 -0.001750216
C	 4.204442596	 -3.458262896	 -0.001505411
H	 4.771027145	 -4.373293646	 -0.002644046
C	 2.854273620	 -3.462080768	 -0.000545315
H	 2.277310383	 -4.375045534	 -0.000863992
N	 2.116282210	 -2.311199929	 0.000905097
H	 1.089945950	 -2.332642728	 0.001582166
C	 2.689053148	 -1.066534888	 0.001455744
O	 2.038732264	 -0.025316583	 0.002692137
