24
0  1  0  1  0  1  12  12 -14.51485 -13.55614 -13.52780 -14.48651 -13.60223 -14.14525 -8.55646 -8.57035 -8.64573 -14.17811 -30.96996 43.82874 -16.01909 -11.01780
N	 0.472565504	 1.080721499	 0.090181027
H	 -0.551796281	 1.185407399	 0.089355221
C	 0.972885807	 -0.210258874	 0.091103427
O	 0.218390781	 -1.185407399	 0.091118509
C	 2.416583206	 -0.307424621	 0.092232842
H	 2.872453318	 -1.281971985	 0.093018663
C	 3.154762645	 0.822114191	 0.092307543
H	 4.234607799	 0.812599966	 0.093136034
N	 2.570973430	 2.055483889	 0.091360870
H	 3.124480322	 2.896287634	 0.091440528
C	 1.196338785	 2.258905597	 0.090236865
O	 0.701655651	 3.366164715	 0.089417884
N	 -3.822577882	 0.227388702	 2.148475051
H	 -4.169256301	 1.156007098	 2.346929242
C	 -4.611787996	 -0.841167277	 2.607308756
O	 -5.650695813	 -0.626727428	 3.207704529
C	 -4.049967976	 -2.138797221	 2.285276066
H	 -4.580129565	 -3.023100911	 2.593879850
C	 -2.882883907	 -2.212874214	 1.610443393
H	 -2.424332131	 -3.154626228	 1.347337416
N	 -2.194140537	 -1.101960604	 1.209614686
H	 -1.307775358	 -1.176785953	 0.697184880
C	 -2.634427429	 0.170823558	 1.461459568
O	 -2.026279643	 1.176785953	 1.107552417
