24
0  1  0  1  0  1  12  12 -15.02508 -14.48095 -14.24305 -14.78717 -14.30077 -14.61015 -11.44077 -11.44708 -11.51386 -14.74626 -17.87238 16.88041 -7.08017 -6.67412
N	 0.722619629	 1.080721499	 -0.045174270
H	 -0.301742156	 1.185407399	 -0.046000076
C	 1.222939932	 -0.210258874	 -0.044251870
O	 0.468444906	 -1.185407399	 -0.044236788
C	 2.666637331	 -0.307424621	 -0.043122455
H	 3.122507443	 -1.281971985	 -0.042336634
C	 3.404816770	 0.822114191	 -0.043047754
H	 4.484661924	 0.812599966	 -0.042219263
N	 2.821027555	 2.055483889	 -0.043994427
H	 3.374534447	 2.896287634	 -0.043914769
C	 1.446392910	 2.258905597	 -0.045118432
O	 0.951709776	 3.366164715	 -0.045937413
N	 -3.822577882	 0.227388702	 2.148475051
H	 -4.169256301	 1.156007098	 2.346929242
C	 -4.611787996	 -0.841167277	 2.607308756
O	 -5.650695813	 -0.626727428	 3.207704529
C	 -4.049967976	 -2.138797221	 2.285276066
H	 -4.580129565	 -3.023100911	 2.593879850
C	 -2.882883907	 -2.212874214	 1.610443393
H	 -2.424332131	 -3.154626228	 1.347337416
N	 -2.194140537	 -1.101960604	 1.209614686
H	 -1.307775358	 -1.176785953	 0.697184880
C	 -2.634427429	 0.170823558	 1.461459568
O	 -2.026279643	 1.176785953	 1.107552417
