14
0  1  0  1  0  1   3  11 -5.93753 -5.57480 -5.69055 -6.05328 -5.74054 -5.92628 -3.16816 -3.17140 -3.18311 -5.84707 -12.11400 14.24724 -4.12238 -3.85792
O	 0.969296238	 0.000347206	 -0.051085779
H	 1.242292350	 -0.006080785	 0.867304819
H	 0.000000000	 -0.000000000	 0.000000000
N	 -1.730371262	 0.897983959	 0.000000000
C	 -1.758444577	 2.236448123	 -0.060110452
H	 -0.798663934	 2.733728611	 0.000000000
C	 -2.931630113	 2.972400323	 -0.194813663
H	 -2.890991280	 4.051200750	 -0.237722780
C	 -4.142318764	 2.292119398	 -0.273004680
H	 -5.073778361	 2.830502435	 -0.379125141
C	 -4.125899415	 0.902593489	 -0.213417008
H	 -5.039162914	 0.328187305	 -0.271151122
C	 -2.902656963	 0.253371711	 -0.077923829
H	 -2.853273514	 -0.827138741	 -0.031954823
