14
0  1  0  1  0  1   3  11 -6.89340 -6.51651 -6.67860 -7.05549 -6.73191 -6.92487 -4.13278 -4.13843 -4.15239 -6.74771 -13.06107 15.13734 -4.88358 -3.94040
O	 -0.552831024	 -0.101697490	 -0.000498788
H	 -0.871759633	 0.801792198	 0.000144400
H	 0.412659497	 -0.001832248	 -0.000251810
N	 2.305995012	 0.093695012	 0.000134948
C	 3.001901651	 0.059724220	 1.144882794
H	 2.417229100	 0.083335162	 2.055750822
C	 4.390925243	 -0.005458212	 1.194878858
H	 4.896831624	 -0.030312367	 2.149207980
C	 5.102088388	 -0.038584010	 -0.000032288
H	 6.181928339	 -0.090357563	 -0.000112716
C	 4.390780090	 -0.005524867	 -1.194833585
H	 4.896577037	 -0.030397894	 -2.149232186
C	 3.001750076	 0.059670124	 -1.144687325
H	 2.416981193	 0.083270779	 -2.055479878
