14
0  1  0  1  0  1   3  11 -5.39130 -5.08744 -5.17861 -5.48247 -5.23900 -5.38362 -2.81428 -2.82031 -2.82948 -5.18196 -7.60277  8.30591 -2.63077 -3.25433
O	 -2.964816145	 0.000347206	 0.051085779
H	 -3.237812258	 -0.006080785	 -0.867304819
H	 -1.995519908	 0.000000000	 0.000000000
N	 0.082816378	 0.000000000	 0.000000000
C	 1.255997004	 0.644919877	 0.060110452
H	 1.206764217	 1.724754541	 0.000000000
C	 2.479943072	 -0.003112499	 0.194813663
H	 3.393892232	 0.571481976	 0.237722780
C	 2.496146836	 -1.391740091	 0.273004680
H	 3.428130022	 -1.929216245	 0.379125141
C	 1.284572424	 -2.072283471	 0.213417008
H	 1.243753827	 -3.150395953	 0.271151122
C	 0.110708646	 -1.337535322	 0.077923829
H	 -0.849732579	 -1.835023226	 0.031954823
