14
0  1  0  1  0  1   3  11 -5.12147 -4.95821 -5.02239 -5.18565 -5.05738 -5.13494 -3.56257 -3.56513 -3.57320 -5.10825 -5.72701  3.86896 -1.38644 -1.86376
O	 0.969296238	 0.000347206	 -0.051085779
H	 1.242292350	 -0.006080785	 0.867304819
H	 0.000000000	 -0.000000000	 0.000000000
N	 -2.059655855	 0.000000000	 -1.097535949
C	 -2.630227599	 1.145107310	 -1.496365270
H	 -2.155776111	 2.055655167	 -1.153031004
C	 -3.761441796	 1.195867844	 -2.305013962
H	 -4.176642401	 2.150455836	 -2.594277323
C	 -4.335792495	 0.001382955	 -2.726902702
H	 -5.214453656	 0.001906544	 -3.356735313
C	 -3.751589451	 -1.193772107	 -2.320807000
H	 -4.158944844	 -2.147854203	 -2.622659358
C	 -2.620782925	 -1.144393433	 -1.511481501
H	 -2.138855091	 -2.055451209	 -1.180159900
