14
0  1  0  1  0  1   3  11 -6.31386 -6.10158 -6.16865 -6.38093 -6.20749 -6.31288 -4.62115 -4.62377 -4.63592 -6.27037 -7.62251  5.79161 -2.13738 -2.30209
O	 -0.552831024	 -0.101697490	 -0.000498788
H	 -0.871759633	 0.801792198	 0.000144400
H	 0.412659497	 -0.001832248	 -0.000251810
N	 2.604942725	 0.108778264	 0.000196015
C	 3.300849364	 0.074807472	 1.144943861
H	 2.716176813	 0.098418414	 2.055811889
C	 4.689872956	 0.009625040	 1.194939925
H	 5.195779337	 -0.015229115	 2.149269047
C	 5.401036101	 -0.023500758	 0.000028779
H	 6.480876052	 -0.075274311	 -0.000051649
C	 4.689727803	 0.009558385	 -1.194772518
H	 5.195524750	 -0.015314642	 -2.149171119
C	 3.300697789	 0.074753376	 -1.144626258
H	 2.715928906	 0.098354031	 -2.055418811
