14
0  1  0  1  0  1   3  11 -5.36849 -4.99919 -5.12692 -5.49622 -5.19225 -5.37131 -2.34107 -2.34819 -2.35607 -5.09631 -9.29843 11.63921 -3.53295 -3.90415
O	 -2.964816145	 0.000347206	 0.051085779
H	 -3.237812258	 -0.006080785	 -0.867304819
H	 -1.995519908	 0.000000000	 0.000000000
N	 -0.021100436	 0.000000000	 0.000000000
C	 1.152080190	 0.644919877	 0.060110452
H	 1.102847403	 1.724754541	 0.000000000
C	 2.376026258	 -0.003112499	 0.194813663
H	 3.289975418	 0.571481976	 0.237722780
C	 2.392230022	 -1.391740091	 0.273004680
H	 3.324213208	 -1.929216245	 0.379125141
C	 1.180655610	 -2.072283471	 0.213417008
H	 1.139837013	 -3.150395953	 0.271151122
C	 0.006791832	 -1.337535322	 0.077923829
H	 -0.953649393	 -1.835023226	 0.031954823
