14
0  1  0  1  0  1   3  11 -5.52021 -5.31975 -5.40267 -5.60313 -5.44131 -5.53928 -3.66367 -3.66647 -3.67695 -5.46629 -6.85767  5.47565 -1.83849 -2.24578
O	 0.969296238	 0.000347206	 -0.051085779
H	 1.242292350	 -0.006080785	 0.867304819
H	 0.000000000	 -0.000000000	 0.000000000
N	 -1.966035135	 0.000000000	 -1.047647952
C	 -2.536606879	 1.145107310	 -1.446477273
H	 -2.062155391	 2.055655167	 -1.103143007
C	 -3.667821076	 1.195867844	 -2.255125965
H	 -4.083021681	 2.150455836	 -2.544389326
C	 -4.242171775	 0.001382955	 -2.677014705
H	 -5.120832936	 0.001906544	 -3.306847316
C	 -3.657968731	 -1.193772107	 -2.270919003
H	 -4.065324124	 -2.147854203	 -2.572771361
C	 -2.527162205	 -1.144393433	 -1.461593504
H	 -2.045234371	 -2.055451209	 -1.130271903
