14
0  1  0  1  0  1   3  11 -5.92728 -5.67151 -5.70324 -5.95902 -5.74591 -5.87414 -4.08485 -4.08467 -4.09658 -5.91312 -8.44589  7.49502 -2.30396 -2.65829
O	 0.969296238	 0.000347206	 -0.051085779
H	 1.242292350	 -0.006080785	 0.867304819
H	 0.000000000	 -0.000000000	 0.000000000
N	 -1.917391532	 0.000000000	 0.997759954
C	 -2.548073728	 1.145107310	 1.292474919
H	 -2.013511788	 2.055655167	 1.053255009
C	 -3.813991136	 1.195867844	 1.867810804
H	 -4.272100858	 2.150455836	 2.082753395
C	 -4.466532852	 0.001382955	 2.154268730
H	 -5.451314474	 0.001906544	 2.600295311
C	 -3.822742136	 -1.193772107	 1.851381904
H	 -4.287831643	 -2.147854203	 2.053235844
C	 -2.556442431	 -1.144393433	 1.276737475
H	 -2.028545591	 -2.055451209	 1.025036529
