14
0  1  0  1  0  1   3  11 -6.19851 -5.83053 -6.00795 -6.37592 -6.06765 -6.25294 -3.41191 -3.42173 -3.43849 -5.98634 -11.40078 13.70006 -4.46231 -3.82331
O	 -2.964816145	 0.000347206	 0.051085779
H	 -3.237812258	 -0.006080785	 -0.867304819
H	 -1.995519908	 0.000000000	 0.000000000
N	 -0.078642030	 0.000000000	 0.000000000
C	 0.552040167	 1.145107310	 -0.294714965
H	 0.017478226	 2.055655167	 -0.055495055
C	 1.817957574	 1.195867844	 -0.870050850
H	 2.276067296	 2.150455836	 -1.084993441
C	 2.470499291	 0.001382955	 -1.156508777
H	 3.455280912	 0.001906544	 -1.602535358
C	 1.826708574	 -1.193772107	 -0.853621950
H	 2.291798082	 -2.147854203	 -1.055475890
C	 0.560408869	 -1.144393433	 -0.278977522
H	 0.032512029	 -2.055451209	 -0.027276575
