14
0  1  0  1  0  1   3  11 -3.67840 -2.98928 -3.38214 -4.07126 -3.45215 -3.81971  0.74625  0.73980  0.71695 -3.85101 -24.07617 38.98452 -11.85304 -6.90632
O	 -0.154234073	 -0.081586488	 -0.000417365
H	 -0.473162682	 0.821903200	 0.000225823
H	 0.811256448	 0.018278754	 -0.000170387
N	 2.405644250	 0.098722763	 0.000155304
C	 3.101550889	 0.064751971	 1.144903150
H	 2.516878338	 0.088362913	 2.055771178
C	 4.490574481	 -0.000430461	 1.194899214
H	 4.996480862	 -0.025284616	 2.149228336
C	 5.201737626	 -0.033556259	 -0.000011932
H	 6.281577577	 -0.085329812	 -0.000092360
C	 4.490429328	 -0.000497116	 -1.194813229
H	 4.996226275	 -0.025370143	 -2.149211830
C	 3.101399314	 0.064697875	 -1.144666969
H	 2.516630431	 0.088298530	 -2.055459522
