14
0  1  0  1  0  1   3  11 -5.20550 -4.95541 -5.02158 -5.27167 -5.07685 -5.19313 -3.01519 -3.02014 -3.02879 -5.05730 -6.28136  5.91337 -1.97213 -2.71718
O	 -2.964816145	 0.000347206	 0.051085779
H	 -3.237812258	 -0.006080785	 -0.867304819
H	 -1.995519908	 0.000000000	 0.000000000
N	 0.186733192	 0.000000000	 0.000000000
C	 1.359913818	 0.644919877	 0.060110452
H	 1.310681031	 1.724754541	 0.000000000
C	 2.583859886	 -0.003112499	 0.194813663
H	 3.497809046	 0.571481976	 0.237722780
C	 2.600063650	 -1.391740091	 0.273004680
H	 3.532046836	 -1.929216245	 0.379125141
C	 1.388489238	 -2.072283471	 0.213417008
H	 1.347670641	 -3.150395953	 0.271151122
C	 0.214625460	 -1.337535322	 0.077923829
H	 -0.745815765	 -1.835023226	 0.031954823
