14
0  1  0  1  0  1   3  11 -5.66245 -5.45177 -5.52678 -5.73746 -5.57202 -5.67366 -3.97972 -3.98679 -4.00102 -5.57949 -6.59356  5.16262 -1.92634 -2.22220
O	 -2.964816145	 0.000347206	 0.051085779
H	 -3.237812258	 -0.006080785	 -0.867304819
H	 -1.995519908	 0.000000000	 0.000000000
N	 0.224022898	 0.000000000	 0.000000000
C	 0.854705095	 1.145107310	 -0.294714965
H	 0.320143154	 2.055655167	 -0.055495055
C	 2.120622502	 1.195867844	 -0.870050850
H	 2.578732224	 2.150455836	 -1.084993441
C	 2.773164219	 0.001382955	 -1.156508777
H	 3.757945840	 0.001906544	 -1.602535358
C	 2.129373502	 -1.193772107	 -0.853621950
H	 2.594463010	 -2.147854203	 -1.055475890
C	 0.863073797	 -1.144393433	 -0.278977522
H	 0.335176957	 -2.055451209	 -0.027276575
