14
0  1  0  1  0  1   3  11 -5.47456 -5.28014 -5.31464 -5.50906 -5.35096 -5.44608 -3.86416 -3.86474 -3.87355 -5.47666 -6.65982  5.03248 -1.69010 -2.15923
O	 0.969296238	 0.000347206	 -0.051085779
H	 1.242292350	 -0.006080785	 0.867304819
H	 0.000000000	 -0.000000000	 0.000000000
N	 -2.018830413	 -1.047647952	 0.000000000
C	 -3.192011038	 -0.402728074	 -0.060110452
H	 -3.142778252	 0.677106589	 0.000000000
C	 -4.415957108	 -1.050760451	 -0.194813663
H	 -5.329906267	 -0.476165976	 -0.237722780
C	 -4.432160870	 -2.439388042	 -0.273004680
H	 -5.364144056	 -2.976864197	 -0.379125141
C	 -3.220586459	 -3.119931423	 -0.213417008
H	 -3.179767862	 -4.198043905	 -0.271151122
C	 -2.046722681	 -2.385183273	 -0.077923829
H	 -1.086281456	 -2.882671178	 -0.031954823
