14
0  1  0  1  0  1   3  11 -5.88560 -5.50341 -5.59010 -5.97230 -5.64176 -5.83834 -3.23620 -3.23747 -3.25049 -5.83300 -12.61157 14.86353 -4.16792 -3.91704
O	 0.969296238	 0.000347206	 -0.051085779
H	 1.242292350	 -0.006080785	 0.867304819
H	 0.000000000	 -0.000000000	 0.000000000
N	 -1.725652379	 0.000000000	 0.897983959
C	 -2.356334575	 1.145107310	 1.192698924
H	 -1.821772635	 2.055655167	 0.953479014
C	 -3.622251983	 1.195867844	 1.768034809
H	 -4.080361705	 2.150455836	 1.982977400
C	 -4.274793699	 0.001382955	 2.054492735
H	 -5.259575321	 0.001906544	 2.500519316
C	 -3.631002983	 -1.193772107	 1.751605909
H	 -4.096092490	 -2.147854203	 1.953459849
C	 -2.364703278	 -1.144393433	 1.176961480
H	 -1.836806438	 -2.055451209	 0.925260534
