14
0  1  0  1  0  1   3  11 -6.67754 -6.42056 -6.50884 -6.76582 -6.55221 -6.68162 -4.68162 -4.68522 -4.69924 -6.59473 -9.03968  7.99052 -2.79700 -2.74858
O	 -0.552831024	 -0.101697490	 -0.000498788
H	 -0.871759633	 0.801792198	 0.000144400
H	 0.412659497	 -0.001832248	 -0.000251810
N	 2.505293488	 0.103750514	 0.000175660
C	 3.201200127	 0.069779722	 1.144923506
H	 2.616527576	 0.093390664	 2.055791534
C	 4.590223719	 0.004597290	 1.194919570
H	 5.096130100	 -0.020256865	 2.149248692
C	 5.301386864	 -0.028528508	 0.000008424
H	 6.381226815	 -0.080302061	 -0.000072004
C	 4.590078566	 0.004530635	 -1.194792873
H	 5.095875513	 -0.020342392	 -2.149191474
C	 3.201048552	 0.069725626	 -1.144646613
H	 2.616279669	 0.093326281	 -2.055439166
