14
0  1  0  1  0  1   3  11 -5.06422 -4.90630 -4.93171 -5.08963 -4.96383 -5.03917 -3.72213 -3.72212 -3.72830 -5.09138 -5.57418  3.54597 -1.27553 -1.78763
O	 0.969296238	 0.000347206	 -0.051085779
H	 1.242292350	 -0.006080785	 0.867304819
H	 0.000000000	 -0.000000000	 0.000000000
N	 -2.114965194	 -1.097535949	 0.000000000
C	 -3.288145819	 -0.452616071	 -0.060110452
H	 -3.238913033	 0.627218592	 0.000000000
C	 -4.512091889	 -1.100648448	 -0.194813663
H	 -5.426041048	 -0.526053973	 -0.237722780
C	 -4.528295651	 -2.489276039	 -0.273004680
H	 -5.460278837	 -3.026752194	 -0.379125141
C	 -3.316721240	 -3.169819420	 -0.213417008
H	 -3.275902643	 -4.247931902	 -0.271151122
C	 -2.142857462	 -2.435071270	 -0.077923829
H	 -1.182416237	 -2.932559175	 -0.031954823
