14
0  1  0  1  0  1   3  11 -5.93996 -5.57698 -5.69198 -6.05496 -5.74198 -5.92786 -3.17294 -3.17615 -3.18787 -5.85046 -12.12115 14.25262 -4.12286 -3.85907
O	 0.969296238	 0.000347206	 -0.051085779
H	 1.242292350	 -0.006080785	 0.867304819
H	 0.000000000	 -0.000000000	 0.000000000
N	 -1.730426068	 -0.897983959	 0.000000000
C	 -2.903606693	 -0.253064081	 -0.060110452
H	 -2.854373907	 0.826770582	 0.000000000
C	 -4.127552763	 -0.901096458	 -0.194813663
H	 -5.041501922	 -0.326501983	 -0.237722780
C	 -4.143756525	 -2.289724049	 -0.273004680
H	 -5.075739711	 -2.827200204	 -0.379125141
C	 -2.932182114	 -2.970267430	 -0.213417008
H	 -2.891363517	 -4.048379912	 -0.271151122
C	 -1.758318336	 -2.235519280	 -0.077923829
H	 -0.797877111	 -2.733007185	 -0.031954823
