14
0  1  0  1  0  1   3  11 -6.06237 -5.70591 -5.91690 -6.27336 -5.96841 -6.15265 -3.31845 -3.32647 -3.34530 -5.83880 -10.72638 12.86383 -4.20352 -3.77272
O	 -2.964816145	 0.000347206	 0.051085779
H	 -3.237812258	 -0.006080785	 -0.867304819
H	 -1.995519908	 0.000000000	 0.000000000
N	 -0.067796504	 0.000000000	 0.000000000
C	 0.502775240	 1.145107310	 0.398829322
H	 0.028323751	 2.055655167	 0.055495055
C	 1.633989437	 1.195867844	 1.207478013
H	 2.049190042	 2.150455836	 1.496741374
C	 2.208340136	 0.001382955	 1.629366753
H	 3.087001296	 0.001906544	 2.259199364
C	 1.624137091	 -1.193772107	 1.223271051
H	 2.031492485	 -2.147854203	 1.525123410
C	 0.493330565	 -1.144393433	 0.413945552
H	 0.011402731	 -2.055451209	 0.082623951
