14
0  1  0  1  0  1   3  11 -5.20525 -4.95529 -5.02173 -5.27169 -5.07694 -5.19319 -3.01524 -3.02018 -3.02886 -5.05711 -6.28048  5.91162 -1.97176 -2.71648
O	 -2.964816145	 0.000347206	 0.051085779
H	 -3.237812258	 -0.006080785	 -0.867304819
H	 -1.995519908	 0.000000000	 0.000000000
N	 0.186768601	 0.000000000	 0.000000000
C	 0.214841917	 1.338464164	 0.060110452
H	 -0.744938727	 1.835744652	 0.000000000
C	 1.388027451	 2.074416364	 0.194813663
H	 1.347388619	 3.153216791	 0.237722780
C	 2.598716104	 1.394135439	 0.273004680
H	 3.530175701	 1.932518477	 0.379125141
C	 2.582296754	 0.004609530	 0.213417008
H	 3.495560253	 -0.569796653	 0.271151122
C	 1.359054302	 -0.644612248	 0.077923829
H	 1.309670853	 -1.725122700	 0.031954823
