14
0  1  0  1  0  1   3  11 -4.29652 -3.73664 -3.98691 -4.54679 -4.04664 -4.34129 -0.34979 -0.35459 -0.36763 -4.28407 -19.01049 28.24374 -7.76988 -5.74743
O	 0.969296238	 0.000347206	 -0.051085779
H	 1.242292350	 -0.006080785	 0.867304819
H	 0.000000000	 -0.000000000	 0.000000000
N	 -1.538107789	 0.798207963	 0.000000000
C	 -1.566181104	 2.136672127	 -0.060110452
H	 -0.606400461	 2.633952615	 0.000000000
C	 -2.739366640	 2.872624327	 -0.194813663
H	 -2.698727807	 3.951424754	 -0.237722780
C	 -3.950055291	 2.192343402	 -0.273004680
H	 -4.881514888	 2.730726439	 -0.379125141
C	 -3.933635942	 0.802817493	 -0.213417008
H	 -4.846899441	 0.228411309	 -0.271151122
C	 -2.710393490	 0.153595715	 -0.077923829
H	 -2.661010041	 -0.926914737	 -0.031954823
