14
0  1  0  1  0  1   3  11  5.33332  6.36177  5.75317  4.72471  5.66286  5.11313 11.92445 11.91419 11.89672  4.68183 -28.73750 60.58086 -17.07421 -10.08732
O	 -2.341315259	 0.000347206	 0.051085779
H	 -2.614311372	 -0.006080785	 -0.867304819
H	 -1.372019022	 0.000000000	 0.000000000
N	 0.082816378	 0.000000000	 0.000000000
C	 1.255997004	 0.644919877	 0.060110452
H	 1.206764217	 1.724754541	 0.000000000
C	 2.479943072	 -0.003112499	 0.194813663
H	 3.393892232	 0.571481976	 0.237722780
C	 2.496146836	 -1.391740091	 0.273004680
H	 3.428130022	 -1.929216245	 0.379125141
C	 1.284572424	 -2.072283471	 0.213417008
H	 1.243753827	 -3.150395953	 0.271151122
C	 0.110708646	 -1.337535322	 0.077923829
H	 -0.849732579	 -1.835023226	 0.031954823
