14
0  1  0  1  0  1   3  11 -5.06087 -4.90309 -4.92882 -5.08659 -4.96095 -5.03620 -3.71740 -3.71743 -3.72362 -5.08776 -5.56966  3.54411 -1.27514 -1.78708
O	 0.969296238	 0.000347206	 -0.051085779
H	 1.242292350	 -0.006080785	 0.867304819
H	 0.000000000	 -0.000000000	 0.000000000
N	 -2.114898210	 1.097535949	 0.000000000
C	 -2.142971525	 2.436000113	 -0.060110452
H	 -1.183190882	 2.933280601	 0.000000000
C	 -3.316157061	 3.171952313	 -0.194813663
H	 -3.275518228	 4.250752740	 -0.237722780
C	 -4.526845712	 2.491671388	 -0.273004680
H	 -5.458305309	 3.030054425	 -0.379125141
C	 -4.510426363	 1.102145479	 -0.213417008
H	 -5.423689862	 0.527739295	 -0.271151122
C	 -3.287183911	 0.452923701	 -0.077923829
H	 -3.237800462	 -0.627586751	 -0.031954823
