14
0  1  0  1  0  1   3  11 -5.96491 -5.66224 -5.81374 -6.11641 -5.86050 -6.01375 -3.33328 -3.33697 -3.34954 -5.80796 -10.13131 10.91609 -3.30521 -3.28753
O	 0.969296238	 0.000347206	 -0.051085779
H	 1.242292350	 -0.006080785	 0.867304819
H	 0.000000000	 -0.000000000	 0.000000000
N	 -1.778793693	 0.000000000	 -0.947871956
C	 -2.349365437	 1.145107310	 -1.346701277
H	 -1.874913949	 2.055655167	 -1.003367011
C	 -3.480579634	 1.195867844	 -2.155349969
H	 -3.895780239	 2.150455836	 -2.444613330
C	 -4.054930333	 0.001382955	 -2.577238709
H	 -4.933591494	 0.001906544	 -3.207071320
C	 -3.470727289	 -1.193772107	 -2.171143007
H	 -3.878082682	 -2.147854203	 -2.472995365
C	 -2.339920763	 -1.144393433	 -1.361817508
H	 -1.857992929	 -2.055451209	 -1.030495907
