14
0  1  0  1  0  1   3  11 -4.90015 -4.69467 -4.74465 -4.95013 -4.79466 -4.88749 -3.04129 -3.04515 -3.05214 -4.80467 -5.24382  4.19939 -1.48835 -2.27189
O	 -2.964816145	 0.000347206	 0.051085779
H	 -3.237812258	 -0.006080785	 -0.867304819
H	 -1.995519908	 0.000000000	 0.000000000
N	 0.290687102	 0.000000000	 0.000000000
C	 0.318760418	 1.338464164	 0.060110452
H	 -0.641020226	 1.835744652	 0.000000000
C	 1.491945952	 2.074416364	 0.194813663
H	 1.451307120	 3.153216791	 0.237722780
C	 2.702634605	 1.394135439	 0.273004680
H	 3.634094202	 1.932518477	 0.379125141
C	 2.686215255	 0.004609530	 0.213417008
H	 3.599478754	 -0.569796653	 0.271151122
C	 1.462972803	 -0.644612248	 0.077923829
H	 1.413589354	 -1.725122700	 0.031954823
