14
0  1  0  1  0  1   3  11 -3.04926 -2.40009 -2.87533 -3.52450 -2.94063 -3.28941  1.48920  1.48171  1.45508 -2.96334 -19.78878 33.90109 -10.42175 -6.65391
O	 -2.558979639	 0.000347206	 0.051085779
H	 -2.831975752	 -0.006080785	 -0.867304819
H	 -1.589683402	 0.000000000	 0.000000000
N	 0.033662622	 0.000000000	 0.000000000
C	 0.604234367	 1.145107310	 0.398829322
H	 0.129782878	 2.055655167	 0.055495055
C	 1.735448563	 1.195867844	 1.207478013
H	 2.150649168	 2.150455836	 1.496741374
C	 2.309799263	 0.001382955	 1.629366753
H	 3.188460423	 0.001906544	 2.259199364
C	 1.725596218	 -1.193772107	 1.223271051
H	 2.132951612	 -2.147854203	 1.525123410
C	 0.594789692	 -1.144393433	 0.413945552
H	 0.112861858	 -2.055451209	 0.082623951
