14
0  1  0  1  0  1   3  11  1.63530  2.51508  2.03207  1.15229  1.96204  1.47893  7.19630  7.19164  7.15615  0.89802 -30.72676 55.43639 -15.10912 -8.70249
O	 0.969296238	 0.000347206	 -0.051085779
H	 1.242292350	 -0.006080785	 0.867304819
H	 0.000000000	 -0.000000000	 0.000000000
N	 -1.345886942	 -0.698431968	 0.000000000
C	 -2.519067567	 -0.053512090	 -0.060110452
H	 -2.469834781	 1.026322573	 0.000000000
C	 -3.743013637	 -0.701544467	 -0.194813663
H	 -4.656962796	 -0.126949992	 -0.237722780
C	 -3.759217399	 -2.090172058	 -0.273004680
H	 -4.691200585	 -2.627648213	 -0.379125141
C	 -2.547642988	 -2.770715439	 -0.213417008
H	 -2.506824391	 -3.848827921	 -0.271151122
C	 -1.373779210	 -2.035967289	 -0.077923829
H	 -0.413337985	 -2.533455194	 -0.031954823
