14
0  1  0  1  0  1   3  11 -5.89599 -5.65279 -5.77843 -6.02163 -5.82000 -5.94395 -3.94688 -3.95229 -3.96977 -5.77119 -7.46041  6.68592 -2.37774 -2.61896
O	 -2.964816145	 0.000347206	 0.051085779
H	 -3.237812258	 -0.006080785	 -0.867304819
H	 -1.995519908	 0.000000000	 0.000000000
N	 0.135121748	 0.000000000	 0.000000000
C	 0.705693493	 1.145107310	 0.398829322
H	 0.231242004	 2.055655167	 0.055495055
C	 1.836907690	 1.195867844	 1.207478013
H	 2.252108295	 2.150455836	 1.496741374
C	 2.411258389	 0.001382955	 1.629366753
H	 3.289919549	 0.001906544	 2.259199364
C	 1.827055344	 -1.193772107	 1.223271051
H	 2.234410738	 -2.147854203	 1.525123410
C	 0.696248818	 -1.144393433	 0.413945552
H	 0.214320984	 -2.055451209	 0.082623951
