14
0  1  0  1  0  1   3  11 -3.18347 -2.51807 -2.94602 -3.61142 -3.02023 -3.37222  1.37538  1.36709  1.34289 -3.17564 -21.27402 35.82279 -10.99472 -6.72969
O	 -2.561262908	 0.000347206	 0.051085779
H	 -2.834259021	 -0.006080785	 -0.867304819
H	 -1.591966671	 0.000000000	 0.000000000
N	 0.022246279	 0.000000000	 0.000000000
C	 0.652928476	 1.145107310	 -0.294714965
H	 0.118366535	 2.055655167	 -0.055495055
C	 1.918845883	 1.195867844	 -0.870050850
H	 2.376955605	 2.150455836	 -1.084993441
C	 2.571387600	 0.001382955	 -1.156508777
H	 3.556169221	 0.001906544	 -1.602535358
C	 1.927596883	 -1.193772107	 -0.853621950
H	 2.392686391	 -2.147854203	 -1.055475890
C	 0.661297178	 -1.144393433	 -0.278977522
H	 0.133400338	 -2.055451209	 -0.027276575
