14
0  1  0  1  0  1   3  11 -3.97223 -3.39055 -3.59966 -4.18134 -3.66123 -3.96792 -0.18364 -0.18703 -0.20125 -4.05452 -19.65466 29.23255 -7.80446 -5.82795
O	 0.969296238	 0.000347206	 -0.051085779
H	 1.242292350	 -0.006080785	 0.867304819
H	 0.000000000	 -0.000000000	 0.000000000
N	 -1.533913226	 0.000000000	 0.798207963
C	 -2.164595422	 1.145107310	 1.092922928
H	 -1.630033482	 2.055655167	 0.853703018
C	 -3.430512830	 1.195867844	 1.668258813
H	 -3.888622552	 2.150455836	 1.883201404
C	 -4.083054546	 0.001382955	 1.954716739
H	 -5.067836168	 0.001906544	 2.400743320
C	 -3.439263830	 -1.193772107	 1.651829913
H	 -3.904353337	 -2.147854203	 1.853683853
C	 -2.172964125	 -1.144393433	 1.077185484
H	 -1.645067285	 -2.055451209	 0.825484538
