14
0  1  0  1  0  1   3  11 -5.57863 -5.37827 -5.47826 -5.67861 -5.51512 -5.61592 -3.93978 -3.94370 -3.95859 -5.50454 -6.31487  4.80865 -1.80743 -2.19089
O	 -2.964816145	 0.000347206	 0.051085779
H	 -3.237812258	 -0.006080785	 -0.867304819
H	 -1.995519908	 0.000000000	 0.000000000
N	 0.236580875	 0.000000000	 0.000000000
C	 0.807152620	 1.145107310	 0.398829322
H	 0.332701131	 2.055655167	 0.055495055
C	 1.938366816	 1.195867844	 1.207478013
H	 2.353567421	 2.150455836	 1.496741374
C	 2.512717516	 0.001382955	 1.629366753
H	 3.391378676	 0.001906544	 2.259199364
C	 1.928514471	 -1.193772107	 1.223271051
H	 2.335869865	 -2.147854203	 1.525123410
C	 0.797707945	 -1.144393433	 0.413945552
H	 0.315780111	 -2.055451209	 0.082623951
