14
0  1  0  1  0  1   3  11 -5.39097 -5.08723 -5.17869 -5.48244 -5.23902 -5.38362 -2.81424 -2.82027 -2.82946 -5.18163 -7.60135  8.30351 -2.63027 -3.25352
O	 -2.964816145	 0.000347206	 0.051085779
H	 -3.237812258	 -0.006080785	 -0.867304819
H	 -1.995519908	 0.000000000	 0.000000000
N	 0.082850101	 0.000000000	 0.000000000
C	 0.110923417	 1.338464164	 0.060110452
H	 -0.848857227	 1.835744652	 0.000000000
C	 1.284108951	 2.074416364	 0.194813663
H	 1.243470119	 3.153216791	 0.237722780
C	 2.494797604	 1.394135439	 0.273004680
H	 3.426257201	 1.932518477	 0.379125141
C	 2.478378254	 0.004609530	 0.213417008
H	 3.391641753	 -0.569796653	 0.271151122
C	 1.255135802	 -0.644612248	 0.077923829
H	 1.205752353	 -1.725122700	 0.031954823
