14
0  1  0  1  0  1   3  11 -5.64414 -5.43475 -5.45449 -5.66388 -5.49285 -5.59573 -4.11102 -4.11037 -4.11985 -5.65704 -7.03263  5.30745 -1.73499 -2.19687
O	 0.969296238	 0.000347206	 -0.051085779
H	 1.242292350	 -0.006080785	 0.867304819
H	 0.000000000	 -0.000000000	 0.000000000
N	 -2.013261109	 0.000000000	 1.047647952
C	 -2.643943305	 1.145107310	 1.342362917
H	 -2.109381365	 2.055655167	 1.103143007
C	 -3.909860713	 1.195867844	 1.917698802
H	 -4.367970435	 2.150455836	 2.132641393
C	 -4.562402429	 0.001382955	 2.204156728
H	 -5.547184051	 0.001906544	 2.650183309
C	 -3.918611713	 -1.193772107	 1.901269902
H	 -4.383701220	 -2.147854203	 2.103123842
C	 -2.652312008	 -1.144393433	 1.326625473
H	 -2.124415168	 -2.055451209	 1.074924527
