14
0  1  0  1  0  1   3  11 -5.27265 -5.10143 -5.11539 -5.28661 -5.14956 -5.23156 -3.99866 -3.99758 -4.00414 -5.30852 -5.92279  3.75252 -1.31775 -1.82050
O	 0.969296238	 0.000347206	 -0.051085779
H	 1.242292350	 -0.006080785	 0.867304819
H	 0.000000000	 -0.000000000	 0.000000000
N	 -2.109130685	 0.000000000	 1.097535949
C	 -2.739812881	 1.145107310	 1.392250914
H	 -2.205250941	 2.055655167	 1.153031004
C	 -4.005730289	 1.195867844	 1.967586799
H	 -4.463840011	 2.150455836	 2.182529390
C	 -4.658272005	 0.001382955	 2.254044725
H	 -5.643053627	 0.001906544	 2.700071306
C	 -4.014481289	 -1.193772107	 1.951157899
H	 -4.479570796	 -2.147854203	 2.153011839
C	 -2.748181584	 -1.144393433	 1.376513470
H	 -2.220284744	 -2.055451209	 1.124812524
