14
0  1  0  1  0  1   3  11 -5.00381 -4.55450 -4.73425 -5.18355 -4.80435 -5.02564 -1.45364 -1.46179 -1.46668 -4.68140 -11.48264 16.26769 -4.77537 -4.69107
O	 -2.964816145	 0.000347206	 0.051085779
H	 -3.237812258	 -0.006080785	 -0.867304819
H	 -1.995519908	 0.000000000	 0.000000000
N	 -0.124986900	 0.000000000	 0.000000000
C	 -0.096913584	 1.338464164	 0.060110452
H	 -1.056694228	 1.835744652	 0.000000000
C	 1.076271950	 2.074416364	 0.194813663
H	 1.035633118	 3.153216791	 0.237722780
C	 2.286960603	 1.394135439	 0.273004680
H	 3.218420200	 1.932518477	 0.379125141
C	 2.270541253	 0.004609530	 0.213417008
H	 3.183804752	 -0.569796653	 0.271151122
C	 1.047298801	 -0.644612248	 0.077923829
H	 0.997915352	 -1.725122700	 0.031954823
