14
0  1  0  1  0  1   3  11  2.33994  3.24161  2.81047  1.90880  2.73811  2.24337  7.70722  7.70326  7.66701  1.38899 -31.59229 56.91687 -15.13129 -8.80429
O	 0.969296238	 0.000347206	 -0.051085779
H	 1.242292350	 -0.006080785	 0.867304819
H	 0.000000000	 -0.000000000	 0.000000000
N	 -1.342174072	 0.000000000	 0.698431968
C	 -1.972856268	 1.145107310	 0.993146933
H	 -1.438294328	 2.055655167	 0.753927023
C	 -3.238773676	 1.195867844	 1.568482818
H	 -3.696883398	 2.150455836	 1.783425409
C	 -3.891315392	 0.001382955	 1.854940744
H	 -4.876097014	 0.001906544	 2.300967325
C	 -3.247524676	 -1.193772107	 1.552053918
H	 -3.712614183	 -2.147854203	 1.753907858
C	 -1.981224971	 -1.144393433	 0.977409489
H	 -1.453328131	 -2.055451209	 0.725708543
