14
0  1  0  1  0  1   3  11 -4.90030 -4.69469 -4.74444 -4.95005 -4.79449 -4.88736 -3.04117 -3.04502 -3.05199 -4.80473 -5.24430  4.20066 -1.48862 -2.27247
O	 -2.964816145	 0.000347206	 0.051085779
H	 -3.237812258	 -0.006080785	 -0.867304819
H	 -1.995519908	 0.000000000	 0.000000000
N	 0.290650007	 0.000000000	 0.000000000
C	 1.463830633	 0.644919877	 0.060110452
H	 1.414597846	 1.724754541	 0.000000000
C	 2.687776701	 -0.003112499	 0.194813663
H	 3.601725861	 0.571481976	 0.237722780
C	 2.703980465	 -1.391740091	 0.273004680
H	 3.635963651	 -1.929216245	 0.379125141
C	 1.492406053	 -2.072283471	 0.213417008
H	 1.451587456	 -3.150395953	 0.271151122
C	 0.318542275	 -1.337535322	 0.077923829
H	 -0.641898950	 -1.835023226	 0.031954823
