14
0  1  0  1  0  1   3  11 -5.00432 -4.55484 -4.73423 -5.18372 -4.80435 -5.02572 -1.45381 -1.46197 -1.46684 -4.68188 -11.48562 16.27211 -4.77623 -4.69215
O	 -2.964816145	 0.000347206	 0.051085779
H	 -3.237812258	 -0.006080785	 -0.867304819
H	 -1.995519908	 0.000000000	 0.000000000
N	 -0.125017251	 0.000000000	 0.000000000
C	 1.048163375	 0.644919877	 0.060110452
H	 0.998930588	 1.724754541	 0.000000000
C	 2.272109443	 -0.003112499	 0.194813663
H	 3.186058603	 0.571481976	 0.237722780
C	 2.288313207	 -1.391740091	 0.273004680
H	 3.220296393	 -1.929216245	 0.379125141
C	 1.076738795	 -2.072283471	 0.213417008
H	 1.035920198	 -3.150395953	 0.271151122
C	 -0.097124983	 -1.337535322	 0.077923829
H	 -1.057566208	 -1.835023226	 0.031954823
