14
0  1  0  1  0  1   3  11 -5.80916 -5.57006 -5.62096 -5.86006 -5.66169 -5.78099 -3.87645 -3.87780 -3.88874 -5.77849 -8.03734  7.12931 -2.25685 -2.61361
O	 0.969296238	 0.000347206	 -0.051085779
H	 1.242292350	 -0.006080785	 0.867304819
H	 0.000000000	 -0.000000000	 0.000000000
N	 -1.922634736	 0.997759954	 0.000000000
C	 -1.950708051	 2.336224118	 -0.060110452
H	 -0.990927408	 2.833504606	 0.000000000
C	 -3.123893587	 3.072176318	 -0.194813663
H	 -3.083254754	 4.150976745	 -0.237722780
C	 -4.334582238	 2.391895393	 -0.273004680
H	 -5.266041835	 2.930278430	 -0.379125141
C	 -4.318162889	 1.002369484	 -0.213417008
H	 -5.231426388	 0.427963300	 -0.271151122
C	 -3.094920437	 0.353147706	 -0.077923829
H	 -3.045536988	 -0.727362746	 -0.031954823
