14
0  1  0  1  0  1   3  11 -5.36802 -4.99889 -5.12694 -5.49607 -5.19224 -5.37122 -2.34095 -2.34807 -2.35597 -5.09588 -9.29632 11.63594 -3.53229 -3.90321
O	 -2.964816145	 0.000347206	 0.051085779
H	 -3.237812258	 -0.006080785	 -0.867304819
H	 -1.995519908	 0.000000000	 0.000000000
N	 -0.021068399	 0.000000000	 0.000000000
C	 0.007004917	 1.338464164	 0.060110452
H	 -0.952775727	 1.835744652	 0.000000000
C	 1.180190451	 2.074416364	 0.194813663
H	 1.139551619	 3.153216791	 0.237722780
C	 2.390879104	 1.394135439	 0.273004680
H	 3.322338701	 1.932518477	 0.379125141
C	 2.374459754	 0.004609530	 0.213417008
H	 3.287723253	 -0.569796653	 0.271151122
C	 1.151217302	 -0.644612248	 0.077923829
H	 1.101833853	 -1.725122700	 0.031954823
