17
0  1  0  1  0  1   6  11 -6.50340 -6.23835 -6.35495 -6.62001 -6.39731 -6.53217 -3.74381 -3.74400 -3.75850 -6.53217 -9.06094  8.89922 -2.78235 -3.58810
O	 0.967885515	 0.088018302	 0.001486929
H	 -0.000000000	 0.000000000	 -0.000000000
C	 1.242768011	 1.471185950	 0.000000000
H	 2.323119454	 1.594073312	 0.003098081
H	 0.850865875	 1.977603919	 -0.886820197
H	 0.845470172	 1.980537425	 0.882737824
N	 -1.867866318	 0.000000000	 0.976395317
C	 -3.043887992	 -0.014685286	 0.334004194
H	 -2.993438917	 -0.006569255	 -0.747392972
C	 -4.271885979	 -0.041220118	 0.987649830
H	 -5.188617253	 -0.052525330	 0.415913117
C	 -4.288832338	 -0.053522896	 2.378456515
H	 -5.224096040	 -0.075025826	 2.920094963
C	 -3.074123157	 -0.038512288	 3.056028826
H	 -3.034525004	 -0.047672232	 4.135631107
C	 -1.896062449	 -0.012068658	 2.316161013
H	 -0.932934837	 -0.001861850	 2.810644539
