17
0  1  0  1  0  1   6  11 -3.90038 -3.27192 -3.72361 -4.35207 -3.77906 -4.11950  1.26521  1.26230  1.24057 -4.00655 -22.28617 35.98766 -10.56181 -7.14623
O	 0.967885515	 0.088018302	 0.001486929
H	 -0.000000000	 0.000000000	 -0.000000000
C	 1.242768011	 1.471185950	 0.000000000
H	 2.323119454	 1.594073312	 0.003098081
H	 0.850865875	 1.977603919	 -0.886820197
H	 0.845470172	 1.980537425	 0.882737824
N	 -1.440519838	 -0.781116254	 0.000000000
C	 -2.037029934	 -1.142468627	 -1.144337869
H	 -1.534992435	 -0.843245556	 -2.055630749
C	 -3.227797872	 -1.860598601	 -1.192263137
H	 -3.662124462	 -2.124411309	 -2.145767291
C	 -3.836593213	 -2.226292779	 0.003737605
H	 -4.761825852	 -2.785305537	 0.005178409
C	 -3.226464048	 -1.856701784	 1.197887030
H	 -3.659666961	 -2.117388595	 2.152649107
C	 -2.035768171	 -1.138718725	 1.146173062
H	 -1.532643513	 -0.836453762	 2.055972163
