17
0  1  0  1  0  1   6  11 -5.75485 -5.57904 -5.64261 -5.81842 -5.67817 -5.76344 -3.77257 -3.77256 -3.78250 -5.82609 -6.22082  4.51816 -1.59675 -2.52667
O	 0.967885515	 0.088018302	 0.001486929
H	 -0.000000000	 0.000000000	 -0.000000000
C	 1.242768011	 1.471185950	 0.000000000
H	 2.323119454	 1.594073312	 0.003098081
H	 0.850865875	 1.977603919	 -0.886820197
H	 0.845470172	 1.980537425	 0.882737824
N	 -2.054652950	 0.000000000	 1.074034849
C	 -3.230674624	 -0.014685286	 0.431643726
H	 -3.180225549	 -0.006569255	 -0.649753440
C	 -4.458672611	 -0.041220118	 1.085289362
H	 -5.375403885	 -0.052525330	 0.513552649
C	 -4.475618970	 -0.053522896	 2.476096047
H	 -5.410882672	 -0.075025826	 3.017734495
C	 -3.260909789	 -0.038512288	 3.153668358
H	 -3.221311636	 -0.047672232	 4.233270639
C	 -2.082849081	 -0.012068658	 2.413800545
H	 -1.119721469	 -0.001861850	 2.908284071
