17
0  1  0  1  0  1   6  11 -6.48570 -6.08352 -6.31140 -6.71358 -6.36123 -6.57136 -2.65343 -2.65437 -2.66962 -6.50295 -13.76322 17.40120 -5.00362 -5.13731
O	 0.967885515	 0.088018302	 0.001486929
H	 -0.000000000	 0.000000000	 -0.000000000
C	 1.242768011	 1.471185950	 0.000000000
H	 2.323119454	 1.594073312	 0.003098081
H	 0.850865875	 1.977603919	 -0.886820197
H	 0.845470172	 1.980537425	 0.882737824
N	 -1.680692553	 0.000000000	 -0.878755785
C	 -1.712376358	 -0.014685286	 -2.218415992
H	 -0.750634403	 -0.006569255	 -2.715424394
C	 -2.892449077	 -0.041220118	 -2.955070627
H	 -2.855676197	 -0.052525330	 -4.034851555
C	 -4.105396178	 -0.053522896	 -2.274343262
H	 -5.042100684	 -0.075025826	 -2.813486163
C	 -4.084836422	 -0.038512288	 -0.883588097
H	 -5.000000346	 -0.047672232	 -0.309493950
C	 -2.855061746	 -0.012068658	 -0.233291503
H	 -2.801733235	 -0.001861850	 0.848043239
