17
0  1  0  1  0  1  11   6 -7.27425 -7.00128 -7.14080 -7.41377 -7.18274 -7.32298 -4.56855 -4.57216 -4.58797 -7.26335 -9.92248  9.59420 -3.32324 -3.61183
N	 2.293457077	 0.015272971	 -0.001638078
C	 2.989825466	 -0.009162360	 -1.146357682
H	 2.405346869	 0.014061175	 -2.057333120
C	 4.379462529	 -0.058905224	 -1.195042932
H	 4.886814877	 -0.076197256	 -2.148825656
C	 5.089835757	 -0.084617841	 0.000570095
H	 6.170171760	 -0.122382594	 0.001419390
C	 4.377588305	 -0.059596734	 1.195109948
H	 4.883387039	 -0.077421061	 2.149595640
C	 2.988034662	 -0.009847047	 1.144155863
H	 2.402028876	 0.012827380	 2.054274549
O	 -0.725144526	 0.092818787	 0.001523167
H	 0.246109282	 0.127654847	 -0.000548563
C	 -1.075423983	 -1.273204488	 0.001290289
H	 -2.160884846	 -1.336691806	 0.005060862
H	 -0.712376438	 -1.801024319	 -0.885332072
H	 -0.706133078	 -1.802885306	 0.884224614
