17
0  1  0  1  0  1  11   6 -5.54114 -5.04738 -5.36993 -5.86368 -5.43829 -5.68679 -0.79511 -0.80203 -0.80811 -5.32908 -13.07386 19.59464 -5.72677 -6.12309
N	 0.071254380	 -0.000000000	 0.000000000
C	 1.247276055	 -0.014685286	 0.642391123
H	 1.196826979	 -0.006569255	 1.723788289
C	 2.475274042	 -0.041220118	 -0.011254513
H	 3.392005315	 -0.052525330	 0.560482200
C	 2.492220400	 -0.053522896	 -1.402061198
H	 3.427484102	 -0.075025826	 -1.943699645
C	 1.277511218	 -0.038512288	 -2.079633509
H	 1.237913066	 -0.047672232	 -3.159235789
C	 0.099450511	 -0.012068658	 -1.339765695
H	 -0.863677100	 -0.001861850	 -1.834249222
O	 -2.718271649	 0.088018302	 -0.001486929
H	 -1.750386133	 0.000000000	 0.000000000
C	 -2.993154145	 1.471185950	 0.000000000
H	 -4.073505587	 1.594073312	 -0.003098081
H	 -2.601252009	 1.977603919	 0.886820197
H	 -2.595856305	 1.980537425	 -0.882737824
