17
0  1  0  1  0  1   6  11 -4.41422 -3.79096 -4.22365 -4.84690 -4.28186 -4.61737  0.90193  0.90070  0.87974 -4.65588 -21.68173 33.72945 -9.25974 -7.44386
O	 0.967885515	 0.088018302	 0.001486929
H	 -0.000000000	 0.000000000	 -0.000000000
C	 1.242768011	 1.471185950	 0.000000000
H	 2.323119454	 1.594073312	 0.003098081
H	 0.850865875	 1.977603919	 -0.886820197
H	 0.845470172	 1.980537425	 0.882737824
N	 -1.494293054	 0.000000000	 0.781116254
C	 -2.670314728	 -0.014685286	 0.138725131
H	 -2.619865653	 -0.006569255	 -0.942672035
C	 -3.898312715	 -0.041220118	 0.792370767
H	 -4.815043989	 -0.052525330	 0.220634054
C	 -3.915259074	 -0.053522896	 2.183177452
H	 -4.850522776	 -0.075025826	 2.724815900
C	 -2.700549893	 -0.038512288	 2.860749763
H	 -2.660951740	 -0.047672232	 3.940352044
C	 -1.522489185	 -0.012068658	 2.120881950
H	 -0.559361573	 -0.001861850	 2.615365476
