17
0  1  0  1  0  1   6  11 -6.38374 -5.94315 -6.27628 -6.71687 -6.33821 -6.56478 -1.84488 -1.84750 -1.86566 -6.43334 -13.84530 17.78706 -4.49591 -5.87918
O	 0.967885515	 0.088018302	 0.001486929
H	 -0.000000000	 0.000000000	 -0.000000000
C	 1.242768011	 1.471185950	 0.000000000
H	 2.323119454	 1.594073312	 0.003098081
H	 0.850865875	 1.977603919	 -0.886820197
H	 0.845470172	 1.980537425	 0.882737824
N	 -1.726175381	 0.878755785	 0.000000000
C	 -2.337370762	 1.214672496	 -1.144337869
H	 -1.827217233	 0.929506803	 -2.055630749
C	 -3.554673533	 1.886842793	 -1.192263137
H	 -4.000305335	 2.131074300	 -2.145767291
C	 -4.175771651	 2.231227935	 0.003737605
H	 -5.122507221	 2.752996526	 0.005178409
C	 -3.550631878	 1.887636076	 1.197887030
H	 -3.992994735	 2.132457399	 2.152649107
C	 -2.333492372	 1.215454728	 1.146173062
H	 -1.820160906	 0.930868475	 2.055972163
