17
0  1  0  1  0  1  11   6 -6.01024 -5.60544 -5.84645 -6.25125 -5.91055 -6.11130 -1.92691 -1.93340 -1.94236 -5.81263 -10.56225 14.17938 -4.27619 -5.15358
N	 0.070309787	 -0.000000000	 -0.000000000
C	 0.101993593	 -0.014685286	 1.339660207
H	 -0.859748363	 -0.006569255	 1.836668609
C	 1.282066312	 -0.041220118	 2.076314842
H	 1.245293431	 -0.052525330	 3.156095769
C	 2.495013412	 -0.053522896	 1.395587476
H	 3.431717918	 -0.075025826	 1.934730378
C	 2.474453655	 -0.038512288	 0.004832311
H	 3.389617580	 -0.047672232	 -0.569261835
C	 1.244678980	 -0.012068658	 -0.645464282
H	 1.191350470	 -0.001861850	 -1.726799024
O	 -2.819521129	 0.088018302	 -0.001486929
H	 -1.851635614	 0.000000000	 0.000000000
C	 -3.094403625	 1.471185950	 0.000000000
H	 -4.174755068	 1.594073312	 -0.003098081
H	 -2.702501489	 1.977603919	 0.886820197
H	 -2.697105786	 1.980537425	 -0.882737824
