17
0  1  0  1  0  1   6  11 -5.75571 -5.57991 -5.64358 -5.81937 -5.67906 -5.76439 -3.77498 -3.77500 -3.78497 -5.82677 -6.22250  4.51993 -1.59882 -2.52537
O	 0.967885515	 0.088018302	 0.001486929
H	 -0.000000000	 0.000000000	 -0.000000000
C	 1.242768011	 1.471185950	 0.000000000
H	 2.323119454	 1.594073312	 0.003098081
H	 0.850865875	 1.977603919	 -0.886820197
H	 0.845470172	 1.980537425	 0.882737824
N	 -2.054179787	 0.000000000	 -1.074034849
C	 -2.085863592	 -0.014685286	 -2.413695056
H	 -1.124121637	 -0.006569255	 -2.910703458
C	 -3.265936311	 -0.041220118	 -3.150349691
H	 -3.229163431	 -0.052525330	 -4.230130619
C	 -4.478883412	 -0.053522896	 -2.469622326
H	 -5.415587918	 -0.075025826	 -3.008765227
C	 -4.458323656	 -0.038512288	 -1.078867161
H	 -5.373487580	 -0.047672232	 -0.504773014
C	 -3.228548980	 -0.012068658	 -0.428570567
H	 -3.175220469	 -0.001861850	 0.652764175
