17
0  1  0  1  0  1   6  11  3.10999  4.15811  3.16844  2.12031  3.08034  2.50328 11.68124 11.67554 11.62328  1.87249 -35.41438 65.23002 -15.88091 -12.06224
O	 0.967885515	 0.088018302	 0.001486929
H	 -0.000000000	 0.000000000	 -0.000000000
C	 1.242768011	 1.471185950	 0.000000000
H	 2.323119454	 1.594073312	 0.003098081
H	 0.850865875	 1.977603919	 -0.886820197
H	 0.845470172	 1.980537425	 0.882737824
N	 -1.342580851	 0.683476722	 0.000000000
C	 -1.953776233	 1.019393433	 -1.144337869
H	 -1.443622703	 0.734227740	 -2.055630749
C	 -3.171079004	 1.691563730	 -1.192263137
H	 -3.616710805	 1.935795237	 -2.145767291
C	 -3.792177122	 2.035948872	 0.003737605
H	 -4.738912691	 2.557717463	 0.005178409
C	 -3.167037349	 1.692357013	 1.197887030
H	 -3.609400206	 1.937178336	 2.152649107
C	 -1.949897842	 1.020175665	 1.146173062
H	 -1.436566377	 0.735589412	 2.055972163
