17
0  1  0  1  0  1  11   6 -6.19133 -5.70183 -6.13679 -6.62628 -6.19661 -6.45325 -1.64895 -1.65648 -1.67600 -6.03982 -15.28164 22.35113 -7.05093 -6.05838
N	 0.013873098	 -0.000000000	 -0.000000000
C	 0.625068481	 0.335916711	 1.144337869
H	 0.114914950	 0.050751018	 2.055630749
C	 1.842371251	 1.008087008	 1.192263137
H	 2.288003052	 1.252318514	 2.145767291
C	 2.463469369	 1.352472149	 -0.003737605
H	 3.410204938	 1.874240740	 -0.005178409
C	 1.838329595	 1.008880290	 -1.197887030
H	 2.280692453	 1.253701613	 -2.152649107
C	 0.621190089	 0.336698942	 -1.146173062
H	 0.107858624	 0.052112690	 -2.055972163
O	 -2.724009777	 0.088018302	 -0.001486929
H	 -1.756124262	 0.000000000	 0.000000000
C	 -2.998892273	 1.471185950	 0.000000000
H	 -4.079243716	 1.594073312	 -0.003098081
H	 -2.606990137	 1.977603919	 0.886820197
H	 -2.601594434	 1.980537425	 -0.882737824
