17
0  1  0  1  0  1  11   6  5.30792  6.34317  5.37957  4.34433  5.30738  4.72494 12.95122 12.94947 12.88861  3.42330 -35.45850 73.32085 -22.51365 -11.92540
N	 0.032718001	 0.000000000	 -0.000000000
C	 0.629228098	 -0.361352373	 1.144337869
H	 0.127190598	 -0.062129302	 2.055630749
C	 1.819996036	 -1.079482347	 1.192263137
H	 2.254322625	 -1.343295055	 2.145767291
C	 2.428791376	 -1.445176525	 -0.003737605
H	 3.354024015	 -2.004189283	 -0.005178409
C	 1.818662210	 -1.075585530	 -1.197887030
H	 2.251865124	 -1.336272341	 -2.152649107
C	 0.627966334	 -0.357602471	 -1.146173062
H	 0.124841677	 -0.055337508	 -2.055972163
O	 -2.325023559	 0.088018302	 -0.001486929
H	 -1.357138044	 0.000000000	 0.000000000
C	 -2.599906055	 1.471185950	 0.000000000
H	 -3.680257498	 1.594073312	 -0.003098081
H	 -2.208003919	 1.977603919	 0.886820197
H	 -2.202608216	 1.980537425	 -0.882737824
