17
0  1  0  1  0  1   6  11 -6.26280 -6.02567 -6.17494 -6.41207 -6.22088 -6.33648 -3.46703 -3.46675 -3.47876 -6.35657 -7.50799  6.58499 -1.91864 -3.51492
O	 0.967885515	 0.088018302	 0.001486929
H	 -0.000000000	 0.000000000	 -0.000000000
C	 1.242768011	 1.471185950	 0.000000000
H	 2.323119454	 1.594073312	 0.003098081
H	 0.850865875	 1.977603919	 -0.886820197
H	 0.845470172	 1.980537425	 0.882737824
N	 -2.013871277	 1.025215083	 0.000000000
C	 -2.625066659	 1.361131794	 -1.144337869
H	 -2.114913129	 1.075966101	 -2.055630749
C	 -3.842369429	 2.033302091	 -1.192263137
H	 -4.288001231	 2.277533598	 -2.145767291
C	 -4.463467548	 2.377687233	 0.003737605
H	 -5.410203117	 2.899455824	 0.005178409
C	 -3.838327775	 2.034095374	 1.197887030
H	 -4.280690632	 2.278916697	 2.152649107
C	 -2.621188268	 1.361914026	 1.146173062
H	 -2.107856802	 1.077327773	 2.055972163
