17
0  1  0  1  0  1   6  11 -6.54406 -6.25282 -6.44496 -6.73621 -6.49588 -6.64113 -3.25716 -3.25763 -3.27259 -6.61595 -9.10938  9.18412 -2.52600 -4.16468
O	 0.967885515	 0.088018302	 0.001486929
H	 -0.000000000	 0.000000000	 -0.000000000
C	 1.242768011	 1.471185950	 0.000000000
H	 2.323119454	 1.594073312	 0.003098081
H	 0.850865875	 1.977603919	 -0.886820197
H	 0.845470172	 1.980537425	 0.882737824
N	 -1.917972645	 0.976395317	 0.000000000
C	 -2.529168027	 1.312312028	 -1.144337869
H	 -2.019014497	 1.027146335	 -2.055630749
C	 -3.746470797	 1.984482325	 -1.192263137
H	 -4.192102599	 2.228713832	 -2.145767291
C	 -4.367568916	 2.328867467	 0.003737605
H	 -5.314304485	 2.850636058	 0.005178409
C	 -3.742429143	 1.985275608	 1.197887030
H	 -4.184792000	 2.230096931	 2.152649107
C	 -2.525289636	 1.313094260	 1.146173062
H	 -2.011958170	 1.028508007	 2.055972163
