17
0  1  0  1  0  1   6  11  2.45463  3.42874  2.66572  1.69161  2.59748  2.05289  9.75560  9.75515  9.70564  1.08759 -34.96146 64.68022 -17.68183 -10.94934
O	 0.967885515	 0.088018302	 0.001486929
H	 -0.000000000	 0.000000000	 -0.000000000
C	 1.242768011	 1.471185950	 0.000000000
H	 2.323119454	 1.594073312	 0.003098081
H	 0.850865875	 1.977603919	 -0.886820197
H	 0.845470172	 1.980537425	 0.882737824
N	 -1.307506423	 0.000000000	 0.683476722
C	 -2.483528097	 -0.014685286	 0.041085599
H	 -2.433079022	 -0.006569255	 -1.040311567
C	 -3.711526084	 -0.041220118	 0.694731235
H	 -4.628257358	 -0.052525330	 0.122994522
C	 -3.728472443	 -0.053522896	 2.085537920
H	 -4.663736145	 -0.075025826	 2.627176368
C	 -2.513763262	 -0.038512288	 2.763110231
H	 -2.474165109	 -0.047672232	 3.842712512
C	 -1.335702554	 -0.012068658	 2.023242418
H	 -0.372574942	 -0.001861850	 2.517725944
