17
0  1  0  1  0  1   6  11 -5.78586 -5.60513 -5.66445 -5.84518 -5.70110 -5.78849 -3.80786 -3.81263 -3.82232 -5.79552 -6.56025  5.03325 -1.84596 -2.42256
O	 0.967885515	 0.088018302	 0.001486929
H	 -0.000000000	 0.000000000	 -0.000000000
C	 1.242768011	 1.471185950	 0.000000000
H	 2.323119454	 1.594073312	 0.003098081
H	 0.850865875	 1.977603919	 -0.886820197
H	 0.845470172	 1.980537425	 0.882737824
N	 -1.980714777	 -1.074034849	 0.000000000
C	 -2.577224873	 -1.435387222	 -1.144337869
H	 -2.075187374	 -1.136164151	 -2.055630749
C	 -3.767992811	 -2.153517196	 -1.192263137
H	 -4.202319401	 -2.417329904	 -2.145767291
C	 -4.376788152	 -2.519211374	 0.003737605
H	 -5.302020791	 -3.078224132	 0.005178409
C	 -3.766658987	 -2.149620379	 1.197887030
H	 -4.199861900	 -2.410307190	 2.152649107
C	 -2.575963110	 -1.431637320	 1.146173062
H	 -2.072838452	 -1.129372357	 2.055972163
