17
0  1  0  1  0  1  11   6 -6.66886 -6.26582 -6.60180 -7.00484 -6.65774 -6.86634 -2.78077 -2.78869 -2.80748 -6.49914 -12.46802 16.35750 -5.28911 -5.09952
N	 0.013873098	 -0.000000000	 -0.000000000
C	 0.625068481	 0.335916711	 1.144337869
H	 0.114914950	 0.050751018	 2.055630749
C	 1.842371251	 1.008087008	 1.192263137
H	 2.288003052	 1.252318514	 2.145767291
C	 2.463469369	 1.352472149	 -0.003737605
H	 3.410204938	 1.874240740	 -0.005178409
C	 1.838329595	 1.008880290	 -1.197887030
H	 2.280692453	 1.253701613	 -2.152649107
C	 0.621190089	 0.336698942	 -1.146173062
H	 0.107858624	 0.052112690	 -2.055972163
O	 -2.822342963	 0.088018302	 -0.001486929
H	 -1.854457448	 0.000000000	 0.000000000
C	 -3.097225459	 1.471185950	 0.000000000
H	 -4.177576902	 1.594073312	 -0.003098081
H	 -2.705323323	 1.977603919	 0.886820197
H	 -2.699927620	 1.980537425	 -0.882737824
