17
0  1  0  1  0  1   6  11 -4.07632 -3.40050 -3.98487 -4.66070 -4.05942 -4.41713  2.17765  2.17246  2.14852 -4.30379 -21.85569 34.20883 -8.29439 -8.36255
O	 0.967885515	 0.088018302	 0.001486929
H	 -0.000000000	 0.000000000	 -0.000000000
C	 1.242768011	 1.471185950	 0.000000000
H	 2.323119454	 1.594073312	 0.003098081
H	 0.850865875	 1.977603919	 -0.886820197
H	 0.845470172	 1.980537425	 0.882737824
N	 -1.534378116	 0.781116254	 0.000000000
C	 -2.145573498	 1.117032965	 -1.144337869
H	 -1.635419968	 0.831867272	 -2.055630749
C	 -3.362876268	 1.789203262	 -1.192263137
H	 -3.808508070	 2.033434769	 -2.145767291
C	 -3.983974387	 2.133588404	 0.003737605
H	 -4.930709956	 2.655356995	 0.005178409
C	 -3.358834614	 1.789996545	 1.197887030
H	 -3.801197471	 2.034817868	 2.152649107
C	 -2.141695107	 1.117815197	 1.146173062
H	 -1.628363641	 0.833228944	 2.055972163
