17
0  1  0  1  0  1  11   6 -3.18865 -2.49834 -3.09973 -3.79004 -3.16108 -3.53883  2.46049  2.45640  2.42291 -3.54902 -22.90271 39.65842 -12.10091 -8.20383
N	 0.032718001	 0.000000000	 -0.000000000
C	 0.629228098	 -0.361352373	 1.144337869
H	 0.127190598	 -0.062129302	 2.055630749
C	 1.819996036	 -1.079482347	 1.192263137
H	 2.254322625	 -1.343295055	 2.145767291
C	 2.428791376	 -1.445176525	 -0.003737605
H	 3.354024015	 -2.004189283	 -0.005178409
C	 1.818662210	 -1.075585530	 -1.197887030
H	 2.251865124	 -1.336272341	 -2.152649107
C	 0.627966334	 -0.357602471	 -1.146173062
H	 0.124841677	 -0.055337508	 -2.055972163
O	 -2.523574423	 0.088018302	 -0.001486929
H	 -1.555688908	 0.000000000	 0.000000000
C	 -2.798456919	 1.471185950	 0.000000000
H	 -3.878808362	 1.594073312	 -0.003098081
H	 -2.406554783	 1.977603919	 0.886820197
H	 -2.401159080	 1.980537425	 -0.882737824
