17
0  1  0  1  0  1  11   6  5.50193  6.60667  5.71025  4.60551  5.63271  5.01432 12.97299 12.96956 12.91139  3.01614 -41.23962 81.61821 -24.96017 -12.40228
N	 2.293457077	 0.015272971	 -0.001638078
C	 2.989825466	 -0.009162360	 -1.146357682
H	 2.405346869	 0.014061175	 -2.057333120
C	 4.379462529	 -0.058905224	 -1.195042932
H	 4.886814877	 -0.076197256	 -2.148825656
C	 5.089835757	 -0.084617841	 0.000570095
H	 6.170171760	 -0.122382594	 0.001419390
C	 4.377588305	 -0.059596734	 1.195109948
H	 4.883387039	 -0.077421061	 2.149595640
C	 2.988034662	 -0.009847047	 1.144155863
H	 2.402028876	 0.012827380	 2.054274549
O	 -0.042695261	 0.055358162	 0.001159995
H	 0.928558547	 0.090194222	 -0.000911735
C	 -0.392974718	 -1.310665113	 0.000927117
H	 -1.478435581	 -1.374152431	 0.004697690
H	 -0.029927173	 -1.838484944	 -0.885695244
H	 -0.023683813	 -1.840345931	 0.883861442
