17
0  1  0  1  0  1   6  11 -6.64827 -6.32223 -6.48518 -6.81121 -6.53113 -6.69951 -3.39670 -3.39726 -3.41257 -6.65934 -11.11157 12.45819 -3.71926 -4.28670
O	 0.967885515	 0.088018302	 0.001486929
H	 -0.000000000	 0.000000000	 -0.000000000
C	 1.242768011	 1.471185950	 0.000000000
H	 2.323119454	 1.594073312	 0.003098081
H	 0.850865875	 1.977603919	 -0.886820197
H	 0.845470172	 1.980537425	 0.882737824
N	 -1.774064361	 0.000000000	 -0.927575551
C	 -1.805748166	 -0.014685286	 -2.267235758
H	 -0.844006211	 -0.006569255	 -2.764244160
C	 -2.985820885	 -0.041220118	 -3.003890393
H	 -2.949048005	 -0.052525330	 -4.083671321
C	 -4.198767987	 -0.053522896	 -2.323163028
H	 -5.135472492	 -0.075025826	 -2.862305929
C	 -4.178208230	 -0.038512288	 -0.932407863
H	 -5.093372154	 -0.047672232	 -0.358313716
C	 -2.948433554	 -0.012068658	 -0.282111269
H	 -2.895105043	 -0.001861850	 0.799223473
