17
0  1  0  1  0  1   6  11  2.45011  3.42345  2.66053  1.68718  2.59222  2.04813  9.74169  9.74118  9.69172  1.08049 -34.94643 64.66392 -17.69507 -10.94193
O	 0.967885515	 0.088018302	 0.001486929
H	 -0.000000000	 0.000000000	 -0.000000000
C	 1.242768011	 1.471185950	 0.000000000
H	 2.323119454	 1.594073312	 0.003098081
H	 0.850865875	 1.977603919	 -0.886820197
H	 0.845470172	 1.980537425	 0.882737824
N	 -1.307205319	 0.000000000	 -0.683476722
C	 -1.338889124	 -0.014685286	 -2.023136929
H	 -0.377147169	 -0.006569255	 -2.520145331
C	 -2.518961843	 -0.041220118	 -2.759791564
H	 -2.482188963	 -0.052525330	 -3.839572492
C	 -3.731908944	 -0.053522896	 -2.079064199
H	 -4.668613450	 -0.075025826	 -2.618207100
C	 -3.711349188	 -0.038512288	 -0.688309034
H	 -4.626513112	 -0.047672232	 -0.114214887
C	 -2.481574512	 -0.012068658	 -0.038012440
H	 -2.428246001	 -0.001861850	 1.043322302
