17
0  1  0  1  0  1  11   6 -5.91269 -5.63778 -5.77345 -6.04837 -5.82920 -5.96057 -2.89025 -2.89545 -2.90650 -5.80327 -7.06222  7.35705 -2.42028 -3.67781
N	 0.070309787	 -0.000000000	 -0.000000000
C	 0.101993593	 -0.014685286	 1.339660207
H	 -0.859748363	 -0.006569255	 1.836668609
C	 1.282066312	 -0.041220118	 2.076314842
H	 1.245293431	 -0.052525330	 3.156095769
C	 2.495013412	 -0.053522896	 1.395587476
H	 3.431717918	 -0.075025826	 1.934730378
C	 2.474453655	 -0.038512288	 0.004832311
H	 3.389617580	 -0.047672232	 -0.569261835
C	 1.244678980	 -0.012068658	 -0.645464282
H	 1.191350470	 -0.001861850	 -1.726799024
O	 -3.021831171	 0.088018302	 -0.001486929
H	 -2.053945656	 0.000000000	 0.000000000
C	 -3.296713667	 1.471185950	 0.000000000
H	 -4.377065110	 1.594073312	 -0.003098081
H	 -2.904811531	 1.977603919	 0.886820197
H	 -2.899415828	 1.980537425	 -0.882737824
