17
0  1  0  1  0  1   6  11 -6.62759 -6.26957 -6.52132 -6.87934 -6.57755 -6.75921 -2.76420 -2.76564 -2.78267 -6.67786 -11.17227 12.79128 -3.35515 -4.94172
O	 0.967885515	 0.088018302	 0.001486929
H	 -0.000000000	 0.000000000	 -0.000000000
C	 1.242768011	 1.471185950	 0.000000000
H	 2.323119454	 1.594073312	 0.003098081
H	 0.850865875	 1.977603919	 -0.886820197
H	 0.845470172	 1.980537425	 0.882737824
N	 -1.822074013	 0.927575551	 0.000000000
C	 -2.433269395	 1.263492262	 -1.144337869
H	 -1.923115865	 0.978326569	 -2.055630749
C	 -3.650572165	 1.935662559	 -1.192263137
H	 -4.096203967	 2.179894066	 -2.145767291
C	 -4.271670284	 2.280047701	 0.003737605
H	 -5.218405853	 2.801816292	 0.005178409
C	 -3.646530511	 1.936455842	 1.197887030
H	 -4.088893368	 2.181277165	 2.152649107
C	 -2.429391004	 1.264274494	 1.146173062
H	 -1.916059538	 0.979688241	 2.055972163
