17
0  1  0  1  0  1  11   6 -6.89015 -6.39882 -6.73067 -7.22200 -6.78495 -7.04464 -2.65404 -2.65889 -2.67553 -6.94467 -17.66118 24.31522 -7.59167 -6.00705
N	 2.293457077	 0.015272971	 -0.001638078
C	 2.989825466	 -0.009162360	 -1.146357682
H	 2.405346869	 0.014061175	 -2.057333120
C	 4.379462529	 -0.058905224	 -1.195042932
H	 4.886814877	 -0.076197256	 -2.148825656
C	 5.089835757	 -0.084617841	 0.000570095
H	 6.170171760	 -0.122382594	 0.001419390
C	 4.377588305	 -0.059596734	 1.195109948
H	 4.883387039	 -0.077421061	 2.149595640
C	 2.988034662	 -0.009847047	 1.144155863
H	 2.402028876	 0.012827380	 2.054274549
O	 -0.432666270	 0.076764233	 0.001367522
H	 0.538587538	 0.111600293	 -0.000704208
C	 -0.782945727	 -1.289259042	 0.001134644
H	 -1.868406590	 -1.352746360	 0.004905217
H	 -0.419898182	 -1.817078873	 -0.885487717
H	 -0.413654822	 -1.818939860	 0.884068969
