17
0  1  0  1  0  1   6  11 -6.46895 -6.19901 -6.31784 -6.58777 -6.35990 -6.49706 -3.73747 -3.74192 -3.75477 -6.40476 -9.51994  9.76663 -3.21364 -3.43781
O	 0.967885515	 0.088018302	 0.001486929
H	 -0.000000000	 0.000000000	 -0.000000000
C	 1.242768011	 1.471185950	 0.000000000
H	 2.323119454	 1.594073312	 0.003098081
H	 0.850865875	 1.977603919	 -0.886820197
H	 0.845470172	 1.980537425	 0.882737824
N	 -1.800649797	 -0.976395317	 0.000000000
C	 -2.397159893	 -1.337747690	 -1.144337869
H	 -1.895122394	 -1.038524619	 -2.055630749
C	 -3.587927831	 -2.055877664	 -1.192263137
H	 -4.022254421	 -2.319690372	 -2.145767291
C	 -4.196723172	 -2.421571842	 0.003737605
H	 -5.121955811	 -2.980584600	 0.005178409
C	 -3.586594007	 -2.051980847	 1.197887030
H	 -4.019796920	 -2.312667658	 2.152649107
C	 -2.395898130	 -1.333997788	 1.146173062
H	 -1.892773472	 -1.031732825	 2.055972163
