17
0  1  0  1  0  1  11   6 -6.91809 -6.69277 -6.79848 -7.02381 -6.83681 -6.95100 -4.59321 -4.59616 -4.61057 -6.93238 -8.32830  7.01400 -2.55544 -3.06264
N	 2.293457077	 0.015272971	 -0.001638078
C	 2.989825466	 -0.009162360	 -1.146357682
H	 2.405346869	 0.014061175	 -2.057333120
C	 4.379462529	 -0.058905224	 -1.195042932
H	 4.886814877	 -0.076197256	 -2.148825656
C	 5.089835757	 -0.084617841	 0.000570095
H	 6.170171760	 -0.122382594	 0.001419390
C	 4.377588305	 -0.059596734	 1.195109948
H	 4.883387039	 -0.077421061	 2.149595640
C	 2.988034662	 -0.009847047	 1.144155863
H	 2.402028876	 0.012827380	 2.054274549
O	 -0.822637278	 0.098170305	 0.001575048
H	 0.148616530	 0.133006365	 -0.000496682
C	 -1.172916735	 -1.267852970	 0.001342170
H	 -2.258377598	 -1.331340288	 0.005112743
H	 -0.809869190	 -1.795672801	 -0.885280191
H	 -0.803625830	 -1.797533788	 0.884276495
