17
0  1  0  1  0  1  11   6 -6.57578 -6.29882 -6.50082 -6.77778 -6.54871 -6.68900 -3.73094 -3.73808 -3.75672 -6.46451 -8.50910  8.71698 -3.03601 -3.63638
N	 0.013873098	 -0.000000000	 -0.000000000
C	 0.625068481	 0.335916711	 1.144337869
H	 0.114914950	 0.050751018	 2.055630749
C	 1.842371251	 1.008087008	 1.192263137
H	 2.288003052	 1.252318514	 2.145767291
C	 2.463469369	 1.352472149	 -0.003737605
H	 3.410204938	 1.874240740	 -0.005178409
C	 1.838329595	 1.008880290	 -1.197887030
H	 2.280692453	 1.253701613	 -2.152649107
C	 0.621190089	 0.336698942	 -1.146173062
H	 0.107858624	 0.052112690	 -2.055972163
O	 -3.019009337	 0.088018302	 -0.001486929
H	 -2.051123822	 0.000000000	 0.000000000
C	 -3.293891833	 1.471185950	 0.000000000
H	 -4.374243276	 1.594073312	 -0.003098081
H	 -2.901989697	 1.977603919	 0.886820197
H	 -2.896593994	 1.980537425	 -0.882737824
