17
0  1  0  1  0  1  11   6 -5.90644 -5.63117 -5.76662 -6.04189 -5.82244 -5.95396 -2.87912 -2.88431 -2.89534 -5.79583 -7.04735  7.34683 -2.41397 -3.68134
N	 0.071254380	 -0.000000000	 0.000000000
C	 1.247276055	 -0.014685286	 0.642391123
H	 1.196826979	 -0.006569255	 1.723788289
C	 2.475274042	 -0.041220118	 -0.011254513
H	 3.392005315	 -0.052525330	 0.560482200
C	 2.492220400	 -0.053522896	 -1.402061198
H	 3.427484102	 -0.075025826	 -1.943699645
C	 1.277511218	 -0.038512288	 -2.079633509
H	 1.237913066	 -0.047672232	 -3.159235789
C	 0.099450511	 -0.012068658	 -1.339765695
H	 -0.863677100	 -0.001861850	 -1.834249222
O	 -3.021878401	 0.088018302	 -0.001486929
H	 -2.053992886	 0.000000000	 0.000000000
C	 -3.296760897	 1.471185950	 0.000000000
H	 -4.377112340	 1.594073312	 -0.003098081
H	 -2.904858761	 1.977603919	 0.886820197
H	 -2.899463058	 1.980537425	 -0.882737824
