17
0  1  0  1  0  1   6  11 -6.50394 -6.23890 -6.35559 -6.62063 -6.39787 -6.53279 -3.74676 -3.74700 -3.76153 -6.53254 -9.06205  8.90115 -2.78559 -3.58604
O	 0.967885515	 0.088018302	 0.001486929
H	 -0.000000000	 0.000000000	 -0.000000000
C	 1.242768011	 1.471185950	 0.000000000
H	 2.323119454	 1.594073312	 0.003098081
H	 0.850865875	 1.977603919	 -0.886820197
H	 0.845470172	 1.980537425	 0.882737824
N	 -1.867436170	 0.000000000	 -0.976395317
C	 -1.899119975	 -0.014685286	 -2.316055524
H	 -0.937378020	 -0.006569255	 -2.813063926
C	 -3.079192694	 -0.041220118	 -3.052710159
H	 -3.042419814	 -0.052525330	 -4.132491087
C	 -4.292139795	 -0.053522896	 -2.371982794
H	 -5.228844301	 -0.075025826	 -2.911125695
C	 -4.271580039	 -0.038512288	 -0.981227629
H	 -5.186743963	 -0.047672232	 -0.407133482
C	 -3.041805363	 -0.012068658	 -0.330931035
H	 -2.988476852	 -0.001861850	 0.750403707
