17
0  1  0  1  0  1   6  11  3.57846  4.54832  3.76621  2.79636  3.70095  3.15668 10.58728 10.58606 10.53556  2.32645 -35.29429 68.10198 -19.93140 -10.54985
O	 0.967885515	 0.088018302	 0.001486929
H	 -0.000000000	 0.000000000	 -0.000000000
C	 1.242768011	 1.471185950	 0.000000000
H	 2.323119454	 1.594073312	 0.003098081
H	 0.850865875	 1.977603919	 -0.886820197
H	 0.845470172	 1.980537425	 0.882737824
N	 -1.260454858	 -0.683476722	 0.000000000
C	 -1.856964954	 -1.044829095	 -1.144337869
H	 -1.354927455	 -0.745606024	 -2.055630749
C	 -3.047732892	 -1.762959069	 -1.192263137
H	 -3.482059482	 -2.026771777	 -2.145767291
C	 -3.656528233	 -2.128653247	 0.003737605
H	 -4.581760872	 -2.687666005	 0.005178409
C	 -3.046399068	 -1.759062252	 1.197887030
H	 -3.479601981	 -2.019749063	 2.152649107
C	 -1.855703191	 -1.041079193	 1.146173062
H	 -1.352578533	 -0.738814230	 2.055972163
