16
0  1  0  1  0  1   8   8 -16.18547 -15.32550 -15.00135 -15.86132 -15.08348 -15.57320 -12.51513 -12.53338 -12.62827 -15.72965 -25.99107 31.05569 -12.66894 -8.12533
C	 -2.775817704	 0.105902062	 0.000355653
O	 -2.066155489	 1.103994580	 0.000000000
O	 -2.310956275	 -1.133255197	 -0.000141035
H	 -1.316998863	 -1.103994580	 0.000000000
C	 -4.272244764	 0.160154805	 0.003332288
H	 -4.603655728	 1.191148216	 -0.014989869
H	 -4.655525560	 -0.376626122	 -0.861038361
H	 -4.648413019	 -0.340842073	 0.892248635
C	 1.029589799	 -0.105926275	 -0.542323256
O	 0.415103870	 -1.104023126	 -0.187178623
O	 0.626971633	 1.133321875	 -0.309908568
H	 -0.233813612	 1.104023126	 0.187178623
C	 2.325196088	 -0.160133636	 -1.291138973
H	 2.613347945	 -1.191269381	 -1.454681113
H	 2.214218060	 0.356455452	 -2.241447819
H	 3.092108660	 0.361289699	 -0.723428466
