16
0  1  0  1  0  1   8   8 -9.29509 -8.94086 -8.73413 -9.08836 -8.78914 -8.97875 -7.43962 -7.44681 -7.48621 -8.97498 -10.99846  9.46076 -3.96033 -3.47695
C	 1.084240528	 0.105902062	 -0.000355653
O	 0.374578313	 1.103994580	 -0.000000000
O	 0.619379099	 -1.133255197	 0.000141035
H	 -0.374578313	 -1.103994580	 0.000000000
C	 2.580667588	 0.160154805	 -0.003332288
H	 2.912078553	 1.191148216	 0.014989869
H	 2.963948384	 -0.376626122	 0.861038361
H	 2.956835843	 -0.340842073	 -0.892248635
C	 -3.181610546	 -1.521968645	 0.000193382
O	 -2.067915537	 -2.031479502	 -0.000127928
O	 -3.398632485	 -0.216305813	 0.000225441
H	 -2.523149109	 0.255323468	 0.000127928
C	 -4.450458299	 -2.317131505	 0.000883671
H	 -4.221820143	 -3.375780204	 -0.001560610
H	 -5.037015123	 -2.059274547	 0.879364287
H	 -5.040528536	 -2.055720910	 -0.874224336
