16
0  1  0  1  0  1   8   8 -11.21549 -10.72566 -10.51487 -11.00470 -10.56827 -10.83724 -9.43267 -9.44201 -9.48150 -10.86499 -15.93191 17.18533 -7.24840 -4.87001
C	 1.084240528	 0.105902062	 -0.000355653
O	 0.374578313	 1.103994580	 0.000000000
O	 0.619379099	 -1.133255197	 0.000141035
H	 -0.374578313	 -1.103994580	 0.000000000
C	 2.580667588	 0.160154805	 -0.003332288
H	 2.912078553	 1.191148216	 0.014989869
H	 2.963948384	 -0.376626122	 0.861038361
H	 2.956835843	 -0.340842073	 -0.892248635
C	 -3.122978542	 1.296209525	 0.000193382
O	 -3.007380384	 0.076965927	 -0.000127928
O	 -2.100752331	 2.136987453	 0.000225441
H	 -1.254567704	 1.614611249	 0.000127928
C	 -4.446033656	 1.997482483	 0.000883671
H	 -5.248531245	 1.270151682	 -0.001560610
H	 -4.516001392	 2.634384072	 0.879364287
H	 -4.514680558	 2.639203595	 -0.874224336
