16
0  1  0  1  0  1   8   8 -10.38320 -9.80326 -9.59459 -10.17453 -9.64274 -9.96319 -8.44741 -8.45394 -8.48477 -10.10455 -18.18230 23.64537 -9.60632 -5.96129
C	 -2.659782821	 0.105902062	 0.000355653
O	 -1.950120606	 1.103994580	 0.000000000
O	 -2.194921392	 -1.133255197	 -0.000141035
H	 -1.200963980	 -1.103994580	 0.000000000
C	 -4.156209881	 0.160154805	 0.003332288
H	 -4.487620845	 1.191148216	 -0.014989869
H	 -4.539490677	 -0.376626122	 -0.861038361
H	 -4.532378136	 -0.340842073	 0.892248635
C	 1.515198706	 -0.633890628	 -0.000193382
O	 0.401503697	 -1.143401485	 0.000127928
O	 1.732220645	 0.671772204	 -0.000225441
H	 0.856737269	 1.143401485	 -0.000127928
C	 2.784046459	 -1.429053488	 -0.000883671
H	 2.555408303	 -2.487702187	 0.001560610
H	 3.370603283	 -1.171196530	 -0.879364287
H	 3.374116696	 -1.167642893	 0.874224336
