16
0  1  0  1  0  1   8   8 -15.05039 -14.43594 -14.08905 -14.70350 -14.16176 -14.51062 -12.40129 -12.41490 -12.49944 -14.68357 -18.51266 17.18289 -7.50999 -5.84380
C	 -2.954039934	 0.105902062	 0.000355653
O	 -2.244377720	 1.103994580	 0.000000000
O	 -2.489178505	 -1.133255197	 -0.000141035
H	 -1.495221094	 -1.103994580	 0.000000000
C	 -4.450466995	 0.160154805	 0.003332288
H	 -4.781877958	 1.191148216	 -0.014989869
H	 -4.833747791	 -0.376626122	 -0.861038361
H	 -4.826635250	 -0.340842073	 0.892248635
C	 1.029589799	 -0.105926275	 -0.542323256
O	 0.415103870	 -1.104023126	 -0.187178623
O	 0.626971633	 1.133321875	 -0.309908568
H	 -0.233813612	 1.104023126	 0.187178623
C	 2.325196088	 -0.160133636	 -1.291138973
H	 2.613347945	 -1.191269381	 -1.454681113
H	 2.214218060	 0.356455452	 -2.241447819
H	 3.092108660	 0.361289699	 -0.723428466
