16
0  1  0  1  0  1   8   8 -11.00367 -10.39235 -10.20632 -10.81764 -10.26452 -10.60062 -8.79660 -8.80676 -8.84545 -10.66506 -19.75919 25.49995 -10.34561 -6.06021
C	 0.977691826	 0.148191491	 -0.000355653
O	 0.268029611	 1.146284009	 0.000000000
O	 0.512830397	 -1.090965768	 0.000141035
H	 -0.481127015	 -1.061705151	 0.000000000
C	 2.474118886	 0.202444234	 -0.003332288
H	 2.805529851	 1.233437645	 0.014989869
H	 2.857399682	 -0.334336693	 0.861038361
H	 2.850287141	 -0.298552644	 -0.892248635
C	 -3.122978542	 1.296209525	 0.000193382
O	 -3.007380384	 0.076965927	 -0.000127928
O	 -2.100752331	 2.136987453	 0.000225441
H	 -1.254567704	 1.614611249	 0.000127928
C	 -4.446033656	 1.997482483	 0.000883671
H	 -5.248531245	 1.270151682	 -0.001560610
H	 -4.516001392	 2.634384072	 0.879364287
H	 -4.514680558	 2.639203595	 -0.874224336
