16
0  1  0  1  0  1   8   8 -15.79328 -15.06495 -14.72198 -15.45031 -14.79954 -15.21483 -12.66678 -12.68273 -12.77534 -15.36453 -21.85665 23.10929 -9.73243 -6.88475
C	 -2.864928819	 0.105902062	 0.000355653
O	 -2.155266604	 1.103994580	 0.000000000
O	 -2.400067390	 -1.133255197	 -0.000141035
H	 -1.406109978	 -1.103994580	 0.000000000
C	 -4.361355879	 0.160154805	 0.003332288
H	 -4.692766843	 1.191148216	 -0.014989869
H	 -4.744636675	 -0.376626122	 -0.861038361
H	 -4.737524134	 -0.340842073	 0.892248635
C	 1.029589799	 -0.105926275	 -0.542323256
O	 0.415103870	 -1.104023126	 -0.187178623
O	 0.626971633	 1.133321875	 -0.309908568
H	 -0.233813612	 1.104023126	 0.187178623
C	 2.325196088	 -0.160133636	 -1.291138973
H	 2.613347945	 -1.191269381	 -1.454681113
H	 2.214218060	 0.356455452	 -2.241447819
H	 3.092108660	 0.361289699	 -0.723428466
