16
0  1  0  1  0  1   8   8 -9.50011 -9.20439 -8.98178 -9.27750 -9.01644 -9.17929 -8.56987 -8.57400 -8.60226 -9.30648 -9.92028  7.08139 -3.34573 -3.12186
C	 -3.007887470	 0.105902062	 0.000355653
O	 -2.298225255	 1.103994580	 0.000000000
O	 -2.543026041	 -1.133255197	 -0.000141035
H	 -1.549068629	 -1.103994580	 0.000000000
C	 -4.504314530	 0.160154805	 0.003332288
H	 -4.835725494	 1.191148216	 -0.014989869
H	 -4.887595326	 -0.376626122	 -0.861038361
H	 -4.880482785	 -0.340842073	 0.892248635
C	 1.515198706	 -0.633890628	 -0.000193382
O	 0.401503697	 -1.143401485	 0.000127928
O	 1.732220645	 0.671772204	 -0.000225441
H	 0.856737269	 1.143401485	 -0.000127928
C	 2.784046459	 -1.429053488	 -0.000883671
H	 2.555408303	 -2.487702187	 0.001560610
H	 3.370603283	 -1.171196530	 -0.879364287
H	 3.374116696	 -1.167642893	 0.874224336
