16
0  1  0  1  0  1   8   8 -0.13120  1.13076  1.13351 -0.12845  1.06527  0.34151  3.74843  3.73864  3.65891 -1.84355 -39.65195 81.73518 -31.82310 -12.10367
C	 1.084240528	 0.105902062	 -0.000355653
O	 0.374578313	 1.103994580	 -0.000000000
O	 0.619379099	 -1.133255197	 0.000141035
H	 -0.374578313	 -1.103994580	 0.000000000
C	 2.580667588	 0.160154805	 -0.003332288
H	 2.912078553	 1.191148216	 0.014989869
H	 2.963948384	 -0.376626122	 0.861038361
H	 2.956835843	 -0.340842073	 -0.892248635
C	 -2.696783733	 1.127051807	 0.000193382
O	 -2.581185575	 -0.092191791	 -0.000127928
O	 -1.674557522	 1.967829735	 0.000225441
H	 -0.828372895	 1.445453531	 0.000127928
C	 -4.019838847	 1.828324765	 0.000883671
H	 -4.822336436	 1.100993964	 -0.001560610
H	 -4.089806583	 2.465226354	 0.879364287
H	 -4.088485749	 2.470045877	 -0.874224336
