16
0  1  0  1  0  1   8   8 -2.14544 -1.01228 -1.06266 -2.19581 -1.13302 -1.77831  2.67624  2.67042  2.59727 -2.68000 -36.32738 68.13970 -23.83846 -10.65386
C	 1.084240528	 0.105902062	 -0.000355653
O	 0.374578313	 1.103994580	 -0.000000000
O	 0.619379099	 -1.133255197	 0.000141035
H	 -0.374578313	 -1.103994580	 0.000000000
C	 2.580667588	 0.160154805	 -0.003332288
H	 2.912078553	 1.191148216	 0.014989869
H	 2.963948384	 -0.376626122	 0.861038361
H	 2.956835843	 -0.340842073	 -0.892248635
C	 -2.635055231	 -1.310521498	 0.000193382
O	 -1.521360222	 -1.820032355	 -0.000127928
O	 -2.852077170	 -0.004858666	 0.000225441
H	 -1.976593794	 0.466770615	 0.000127928
C	 -3.903902984	 -2.105684358	 0.000883671
H	 -3.675264828	 -3.164333057	 -0.001560610
H	 -4.490459808	 -1.847827400	 0.879364287
H	 -4.493973221	 -1.844273763	 -0.874224336
