16
0  1  0  1  0  1   8   8  7.85339 10.26823 10.02530  7.61046  9.93306  8.52327 16.10093 16.08340 15.92448  2.78109 -79.33395 168.51689 -64.15638 -22.24547
C	 1.084240528	 0.105902062	 -0.000355653
O	 0.374578313	 1.103994580	 -0.000000000
O	 0.619379099	 -1.133255197	 0.000141035
H	 -0.374578313	 -1.103994580	 0.000000000
C	 2.580667588	 0.160154805	 -0.003332288
H	 2.912078553	 1.191148216	 0.014989869
H	 2.963948384	 -0.376626122	 0.861038361
H	 2.956835843	 -0.340842073	 -0.892248635
C	 -2.054652538	 -0.105926275	 -1.134040321
O	 -1.439845299	 -1.104023126	 -0.779452213
O	 -1.652066431	 1.133321875	 -0.901570105
H	 -0.791183673	 1.104023126	 -0.404651811
C	 -3.350949116	 -0.160133636	 -1.881660422
H	 -3.636656692	 -1.191269381	 -2.049436180
H	 -4.118451703	 0.356455452	 -1.310396207
H	 -3.242753681	 0.361289699	 -2.829681446
