16
0  1  0  1  0  1   8   8 -7.14165 -6.71864 -6.50840 -6.93142 -6.56989 -6.79542 -4.18513 -4.18838 -4.22754 -6.73246 -11.21395 13.42397 -4.67742 -4.26506
C	 -2.775817704	 0.105902062	 0.000355653
O	 -2.066155489	 1.103994580	 0.000000000
O	 -2.310956275	 -1.133255197	 -0.000141035
H	 -1.316998863	 -1.103994580	 0.000000000
C	 -4.272244764	 0.160154805	 0.003332288
H	 -4.603655728	 1.191148216	 -0.014989869
H	 -4.655525560	 -0.376626122	 -0.861038361
H	 -4.648413019	 -0.340842073	 0.892248635
C	 1.656923577	 0.450420937	 -0.000193382
O	 1.541325419	 -0.768822661	 0.000127928
O	 0.634697366	 1.291198865	 -0.000225441
H	 -0.211487261	 0.768822661	 -0.000127928
C	 2.979978691	 1.151693895	 -0.000883671
H	 3.782476280	 0.424363094	 0.001560610
H	 3.049946427	 1.788595484	 -0.879364287
H	 3.048625593	 1.793415007	 0.874224336
