16
0  1  0  1  0  1   8   8 -15.84784 -15.15371 -14.80874 -15.50288 -14.88485 -15.28097 -12.87523 -12.89031 -12.98235 -15.43266 -21.02568 21.24669 -9.09356 -6.56010
C	 1.163920134	 0.105902062	 0.041933776
O	 0.454257919	 1.103994580	 0.042289429
O	 0.699058705	 -1.133255197	 0.042430464
H	 -0.294898707	 -1.103994580	 0.042289429
C	 2.660347194	 0.160154805	 0.038957141
H	 2.991758159	 1.191148216	 0.057279298
H	 3.043627990	 -0.376626122	 0.903327790
H	 3.036515449	 -0.340842073	 -0.849959206
C	 -2.532730175	 -0.105926275	 -1.387776897
O	 -1.917922936	 -1.104023126	 -1.033188789
O	 -2.130144068	 1.133321875	 -1.155306681
H	 -1.269261310	 1.104023126	 -0.658388387
C	 -3.829026753	 -0.160133636	 -2.135396998
H	 -4.114734329	 -1.191269381	 -2.303172756
H	 -4.596529340	 0.356455452	 -1.564132783
H	 -3.720831318	 0.361289699	 -3.083418022
