16
0  1  0  1  0  1   8   8 -9.84285 -7.94151 -7.92813 -9.82947 -8.01543 -9.11599 -3.75729 -3.77561 -3.89843 -12.32761 -64.69762 120.84759 -50.50622 -17.97135
C	 -0.723406987	 1.298637606	 0.294648978
O	 -0.019858899	 2.271955647	 0.534401643
O	 -0.251001299	 0.096414792	 0.006377788
H	 0.742737876	 0.129219655	 0.021000813
C	 -2.220125581	 1.344046857	 0.298846295
H	 -2.557695761	 2.348961036	 0.520905315
H	 -2.594587061	 1.023887485	 -0.670406576
H	 -2.598909743	 0.646407467	 1.042146059
C	 2.799564974	 1.108464452	 0.271261944
O	 2.095946609	 0.135149964	 0.031474342
O	 2.327138640	 2.310899840	 0.559040415
H	 1.333350100	 2.278001606	 0.544639911
C	 4.296277422	 1.062561706	 0.269297549
H	 4.633856986	 0.061242513	 0.031772054
H	 4.677775967	 1.772914645	 -0.460171349
H	 4.667793733	 1.365256223	 1.245352910
