16
0  1  0  1  0  1   8   8 -9.74145 -8.09353 -8.04209 -9.69002 -8.13287 -9.07559 -3.36624 -3.38674 -3.48746 -10.62159 -53.23720 94.00214 -35.91396 -15.47257
C	 1.084240528	 0.105902062	 -0.000355653
O	 0.374578313	 1.103994580	 -0.000000000
O	 0.619379099	 -1.133255197	 0.000141035
H	 -0.374578313	 -1.103994580	 0.000000000
C	 2.580667588	 0.160154805	 -0.003332288
H	 2.912078553	 1.191148216	 0.014989869
H	 2.963948384	 -0.376626122	 0.861038361
H	 2.956835843	 -0.340842073	 -0.892248635
C	 -2.213825648	 -0.105926275	 1.218954126
O	 -1.599339719	 -1.104023126	 0.863809493
O	 -1.811207482	 1.133321875	 0.986539438
H	 -0.950422237	 1.104023126	 0.489452247
C	 -3.509431937	 -0.160133636	 1.967769843
H	 -3.797583794	 -1.191269381	 2.131311983
H	 -3.398453908	 0.356455452	 2.918078689
H	 -4.276344509	 0.361289699	 1.400059336
