16
0  1  0  1  0  1   8   8 -5.97808 -5.30888 -5.18786 -5.85706 -5.25560 -5.61933 -1.72222 -1.72506 -1.76301 -5.49718 -18.94007 29.35708 -9.33312 -6.58107
C	 -2.775817704	 0.105902062	 0.000355653
O	 -2.066155489	 1.103994580	 0.000000000
O	 -2.310956275	 -1.133255197	 -0.000141035
H	 -1.316998863	 -1.103994580	 0.000000000
C	 -4.272244764	 0.160154805	 0.003332288
H	 -4.603655728	 1.191148216	 -0.014989869
H	 -4.655525560	 -0.376626122	 -0.861038361
H	 -4.648413019	 -0.340842073	 0.892248635
C	 1.421273952	 0.450420937	 -0.000193382
O	 1.305675794	 -0.768822661	 0.000127928
O	 0.399047741	 1.291198865	 -0.000225441
H	 -0.447136886	 0.768822661	 -0.000127928
C	 2.744329066	 1.151693895	 -0.000883671
H	 3.546826655	 0.424363094	 0.001560610
H	 2.814296802	 1.788595484	 -0.879364287
H	 2.812975968	 1.793415007	 0.874224336
