16
0  1  0  1  0  1   8   8 -16.44937 -15.47826 -15.18044 -16.15154 -15.26520 -15.81743 -12.35012 -12.36956 -12.46394 -16.01543 -29.92515 38.62995 -15.53705 -9.18318
C	 1.004560467	 0.105902062	 0.041933776
O	 0.294898252	 1.103994580	 0.042289429
O	 0.539699038	 -1.133255197	 0.042430464
H	 -0.454258374	 -1.103994580	 0.042289429
C	 2.500987527	 0.160154805	 0.038957141
H	 2.832398492	 1.191148216	 0.057279298
H	 2.884268323	 -0.376626122	 0.903327790
H	 2.877155782	 -0.340842073	 -0.849959206
C	 -2.532545892	 -0.105926275	 1.388111844
O	 -1.918059963	 -1.104023126	 1.032967211
O	 -2.129927726	 1.133321875	 1.155697156
H	 -1.269142481	 1.104023126	 0.658609965
C	 -3.828152181	 -0.160133636	 2.136927561
H	 -4.116304038	 -1.191269381	 2.300469701
H	 -3.717174152	 0.356455452	 3.087236407
H	 -4.595064753	 0.361289699	 1.569217054
