16
0  1  0  1  0  1   8   8 -16.18793 -15.32795 -15.00376 -15.86374 -15.08590 -15.57562 -12.51800 -12.53622 -12.63113 -15.73415 -25.99543 31.05996 -12.67099 -8.12769
C	 -2.775817704	 0.105902062	 0.000355653
O	 -2.066155489	 1.103994580	 0.000000000
O	 -2.310956275	 -1.133255197	 -0.000141035
H	 -1.316998863	 -1.103994580	 0.000000000
C	 -4.272244764	 0.160154805	 0.003332288
H	 -4.603655728	 1.191148216	 -0.014989869
H	 -4.655525560	 -0.376626122	 -0.861038361
H	 -4.648413019	 -0.340842073	 0.892248635
C	 1.029730868	 -0.105926275	 0.541988309
O	 0.414923629	 -1.104023126	 0.187400201
O	 0.627144761	 1.133321875	 0.309518093
H	 -0.233737997	 1.104023126	 -0.187400201
C	 2.326027446	 -0.160133636	 1.289608410
H	 2.611735022	 -1.191269381	 1.457384168
H	 3.093530034	 0.356455452	 0.718344195
H	 2.217832011	 0.361289699	 2.237629434
