16
0  1  0  1  0  1   8   8 -15.84787 -15.15366 -14.80868 -15.50288 -14.88469 -15.28092 -12.87533 -12.89038 -12.98245 -15.43245 -21.02763 21.24917 -9.09405 -6.55994
C	 1.163920589	 0.105902062	 -0.042645082
O	 0.454258374	 1.103994580	 -0.042289429
O	 0.699059160	 -1.133255197	 -0.042148394
H	 -0.294898252	 -1.103994580	 -0.042289429
C	 2.660347649	 0.160154805	 -0.045621717
H	 2.991758614	 1.191148216	 -0.027299560
H	 3.043628445	 -0.376626122	 0.818748932
H	 3.036515904	 -0.340842073	 -0.934538064
C	 -2.532545892	 -0.105926275	 1.388111844
O	 -1.918059963	 -1.104023126	 1.032967211
O	 -2.129927726	 1.133321875	 1.155697156
H	 -1.269142481	 1.104023126	 0.658609965
C	 -3.828152181	 -0.160133636	 2.136927561
H	 -4.116304038	 -1.191269381	 2.300469701
H	 -3.717174152	 0.356455452	 3.087236407
H	 -4.595064753	 0.361289699	 1.569217054
