16
0  1  0  1  0  1   8   8 -15.05287 -14.43828 -14.09136 -14.70595 -14.16401 -14.51299 -12.40390 -12.41747 -12.50202 -14.68593 -18.51613 17.18567 -7.51138 -5.84409
C	 -2.954034703	 0.105902062	 0.000355653
O	 -2.244372488	 1.103994580	 0.000000000
O	 -2.489173274	 -1.133255197	 -0.000141035
H	 -1.495215862	 -1.103994580	 0.000000000
C	 -4.450461763	 0.160154805	 0.003332288
H	 -4.781872727	 1.191148216	 -0.014989869
H	 -4.833742559	 -0.376626122	 -0.861038361
H	 -4.826630018	 -0.340842073	 0.892248635
C	 1.029730868	 -0.105926275	 0.541988309
O	 0.414923629	 -1.104023126	 0.187400201
O	 0.627144761	 1.133321875	 0.309518093
H	 -0.233737997	 1.104023126	 -0.187400201
C	 2.326027446	 -0.160133636	 1.289608410
H	 2.611735022	 -1.191269381	 1.457384168
H	 3.093530034	 0.356455452	 0.718344195
H	 2.217832011	 0.361289699	 2.237629434
