16
0  1  0  1  0  1   8   8 -14.99031 -14.40663 -14.06131 -14.64499 -14.13256 -14.46348 -12.47993 -12.49275 -12.57494 -14.64365 -17.81859 15.73891 -7.00477 -5.55921
C	 1.243599740	 0.105902062	 0.084223206
O	 0.533937525	 1.103994580	 0.084578859
O	 0.778738311	 -1.133255197	 0.084719894
H	 -0.215219101	 -1.103994580	 0.084578859
C	 2.740026800	 0.160154805	 0.081246571
H	 3.071437765	 1.191148216	 0.099568728
H	 3.123307596	 -0.376626122	 0.945617220
H	 3.116195055	 -0.340842073	 -0.807669776
C	 -2.532730175	 -0.105926275	 -1.387776897
O	 -1.917922936	 -1.104023126	 -1.033188789
O	 -2.130144068	 1.133321875	 -1.155306681
H	 -1.269261310	 1.104023126	 -0.658388387
C	 -3.829026753	 -0.160133636	 -2.135396998
H	 -4.114734329	 -1.191269381	 -2.303172756
H	 -4.596529340	 0.356455452	 -1.564132783
H	 -3.720831318	 0.361289699	 -3.083418022
