16
0  1  0  1  0  1   8   8 -16.40403 -15.58203 -15.25139 -16.07339 -15.33205 -15.80116 -12.90359 -12.92095 -13.01701 -15.94830 -24.99536 28.66218 -11.86005 -7.75508
C	 1.084240528	 0.105902062	 -0.000355653
O	 0.374578313	 1.103994580	 0.000000000
O	 0.619379099	 -1.133255197	 0.000141035
H	 -0.374578313	 -1.103994580	 0.000000000
C	 2.580667588	 0.160154805	 -0.003332288
H	 2.912078553	 1.191148216	 0.014989869
H	 2.963948384	 -0.376626122	 0.861038361
H	 2.956835843	 -0.340842073	 -0.892248635
C	 -2.532545892	 -0.105926275	 1.388111844
O	 -1.918059963	 -1.104023126	 1.032967211
O	 -2.129927726	 1.133321875	 1.155697156
H	 -1.269142481	 1.104023126	 0.658609965
C	 -3.828152181	 -0.160133636	 2.136927561
H	 -4.116304038	 -1.191269381	 2.300469701
H	 -3.717174152	 0.356455452	 3.087236407
H	 -4.595064753	 0.361289699	 1.569217054
