16
0  1  0  1  0  1   8   8 -9.90341 -9.35378 -9.18213 -9.73176 -9.24280 -9.54371 -7.13248 -7.13840 -7.18162 -9.45643 -17.17437 20.98939 -7.90676 -5.36469
C	 1.084240528	 0.105902062	 -0.000355653
O	 0.374578313	 1.103994580	 -0.000000000
O	 0.619379099	 -1.133255197	 0.000141035
H	 -0.374578313	 -1.103994580	 0.000000000
C	 2.580667588	 0.160154805	 -0.003332288
H	 2.912078553	 1.191148216	 0.014989869
H	 2.963948384	 -0.376626122	 0.861038361
H	 2.956835843	 -0.340842073	 -0.892248635
C	 -2.962988420	 -1.437389787	 0.000193382
O	 -1.849293411	 -1.946900644	 -0.000127928
O	 -3.180010359	 -0.131726955	 0.000225441
H	 -2.304526983	 0.339902326	 0.000127928
C	 -4.231836173	 -2.232552647	 0.000883671
H	 -4.003198017	 -3.291201346	 -0.001560610
H	 -4.818392997	 -1.974695689	 0.879364287
H	 -4.821906410	 -1.971142052	 -0.874224336
