16
0  1  0  1  0  1   8   8 -15.68032 -14.52958 -14.28711 -15.43785 -14.37512 -15.02772 -10.90422 -10.92508 -11.01565 -15.39218 -36.06591 52.01959 -20.44676 -10.89909
C	 0.924880406	 0.105902062	 0.084223206
O	 0.215218191	 1.103994580	 0.084578859
O	 0.460018977	 -1.133255197	 0.084719894
H	 -0.533938435	 -1.103994580	 0.084578859
C	 2.421307466	 0.160154805	 0.081246571
H	 2.752718431	 1.191148216	 0.099568728
H	 2.804588262	 -0.376626122	 0.945617220
H	 2.797475721	 -0.340842073	 -0.807669776
C	 -2.532545892	 -0.105926275	 1.388111844
O	 -1.918059963	 -1.104023126	 1.032967211
O	 -2.129927726	 1.133321875	 1.155697156
H	 -1.269142481	 1.104023126	 0.658609965
C	 -3.828152181	 -0.160133636	 2.136927561
H	 -4.116304038	 -1.191269381	 2.300469701
H	 -3.717174152	 0.356455452	 3.087236407
H	 -4.595064753	 0.361289699	 1.569217054
