16
0  1  0  1  0  1   8   8 -8.53303 -8.24943 -8.04577 -8.32937 -8.09803 -8.24515 -7.02935 -7.03771 -7.06943 -8.28902 -8.96745  6.33486 -2.84146 -2.81497
C	 1.084240528	 0.105902062	 -0.000355653
O	 0.374578313	 1.103994580	 -0.000000000
O	 0.619379099	 -1.133255197	 0.000141035
H	 -0.374578313	 -1.103994580	 0.000000000
C	 2.580667588	 0.160154805	 -0.003332288
H	 2.912078553	 1.191148216	 0.014989869
H	 2.963948384	 -0.376626122	 0.861038361
H	 2.956835843	 -0.340842073	 -0.892248635
C	 -3.290921609	 -1.564258075	 0.000193382
O	 -2.177226600	 -2.073768932	 -0.000127928
O	 -3.507943548	 -0.258595243	 0.000225441
H	 -2.632460172	 0.213034038	 0.000127928
C	 -4.559769362	 -2.359420935	 0.000883671
H	 -4.331131206	 -3.418069634	 -0.001560610
H	 -5.146326186	 -2.101563977	 0.879364287
H	 -5.149839599	 -2.098010340	 -0.874224336
