16
0  1  0  1  0  1   8   8 24.17446 26.03624 25.54470 23.68291 25.45298 24.37737 32.73457 32.72511 32.60118 20.20797 -58.38997 136.38136 -41.10687 -16.67655
C	 -2.775817704	 0.105902062	 0.000355653
O	 -2.066155489	 1.103994580	 0.000000000
O	 -2.310956275	 -1.133255197	 -0.000141035
H	 -1.316998863	 -1.103994580	 0.000000000
C	 -4.272244764	 0.160154805	 0.003332288
H	 -4.603655728	 1.191148216	 -0.014989869
H	 -4.655525560	 -0.376626122	 -0.861038361
H	 -4.648413019	 -0.340842073	 0.892248635
C	 0.949974700	 0.450420937	 -0.000193382
O	 0.834376543	 -0.768822661	 0.000127928
O	 -0.072251511	 1.291198865	 -0.000225441
H	 -0.918436138	 0.768822661	 -0.000127928
C	 2.273029815	 1.151693895	 -0.000883671
H	 3.075527403	 0.424363094	 0.001560610
H	 2.342997550	 1.788595484	 -0.879364287
H	 2.341676717	 1.793415007	 0.874224336
