16
0  1  0  1  0  1   8   8 -19.04313 -17.89642 -17.63055 -18.77726 -17.72158 -18.37067 -14.74734 -14.77353 -14.86544 -18.83141 -37.99819 52.73392 -22.66772 -10.89942
C	 -0.977133650	 1.297514830	 0.292707247
O	 -0.273585562	 2.270832871	 0.532459912
O	 -0.504727962	 0.095292016	 0.004436057
H	 0.489011213	 0.128096879	 0.019059082
C	 -2.473852244	 1.342924081	 0.296904564
H	 -2.811422424	 2.347838260	 0.518963584
H	 -2.848313724	 1.022764709	 -0.672348307
H	 -2.852636406	 0.645284691	 1.040204328
C	 2.799564974	 1.108464452	 0.271261944
O	 2.095946609	 0.135149964	 0.031474342
O	 2.327138640	 2.310899840	 0.559040415
H	 1.333350100	 2.278001606	 0.544639911
C	 4.296277422	 1.062561706	 0.269297549
H	 4.633856986	 0.061242513	 0.031772054
H	 4.677775967	 1.772914645	 -0.460171349
H	 4.667793733	 1.365256223	 1.245352910
