16
0  1  0  1  0  1   8   8 -9.12229 -8.43092 -8.30746 -8.99883 -8.37113 -8.75248 -5.76584 -5.77165 -5.81541 -8.70895 -21.84871 31.16838 -11.32125 -6.70737
C	 1.084240528	 0.105902062	 -0.000355653
O	 0.374578313	 1.103994580	 -0.000000000
O	 0.619379099	 -1.133255197	 0.000141035
H	 -0.374578313	 -1.103994580	 0.000000000
C	 2.580667588	 0.160154805	 -0.003332288
H	 2.912078553	 1.191148216	 0.014989869
H	 2.963948384	 -0.376626122	 0.861038361
H	 2.956835843	 -0.340842073	 -0.892248635
C	 -2.853677357	 -1.395100357	 0.000193382
O	 -1.739982348	 -1.904611214	 -0.000127928
O	 -3.070699296	 -0.089437525	 0.000225441
H	 -2.195215920	 0.382191756	 0.000127928
C	 -4.122525110	 -2.190263217	 0.000883671
H	 -3.893886954	 -3.248911916	 -0.001560610
H	 -4.709081934	 -1.932406259	 0.879364287
H	 -4.712595347	 -1.928852622	 -0.874224336
