16
0  1  0  1  0  1   8   8 -10.19475 -9.82373 -9.59301 -9.96403 -9.63228 -9.83804 -8.98745 -8.99265 -9.02576 -9.94445 -11.98083 10.60172 -4.70725 -3.85809
C	 -2.891852587	 0.105902062	 0.000355653
O	 -2.182190372	 1.103994580	 0.000000000
O	 -2.426991158	 -1.133255197	 -0.000141035
H	 -1.433033746	 -1.103994580	 0.000000000
C	 -4.388279647	 0.160154805	 0.003332288
H	 -4.719690611	 1.191148216	 -0.014989869
H	 -4.771560443	 -0.376626122	 -0.861038361
H	 -4.764447902	 -0.340842073	 0.892248635
C	 1.515198706	 -0.633890628	 -0.000193382
O	 0.401503697	 -1.143401485	 0.000127928
O	 1.732220645	 0.671772204	 -0.000225441
H	 0.856737269	 1.143401485	 -0.000127928
C	 2.784046459	 -1.429053488	 -0.000883671
H	 2.555408303	 -2.487702187	 0.001560610
H	 3.370603283	 -1.171196530	 -0.879364287
H	 3.374116696	 -1.167642893	 0.874224336
