16
0  1  0  1  0  1   8   8 -9.74292 -8.09506 -8.04353 -9.69140 -8.13440 -9.07702 -3.36737 -3.38787 -3.48856 -10.62265 -53.23149 93.99165 -35.91044 -15.47236
C	 1.084240528	 0.105902062	 -0.000355653
O	 0.374578313	 1.103994580	 -0.000000000
O	 0.619379099	 -1.133255197	 0.000141035
H	 -0.374578313	 -1.103994580	 0.000000000
C	 2.580667588	 0.160154805	 -0.003332288
H	 2.912078553	 1.191148216	 0.014989869
H	 2.963948384	 -0.376626122	 0.861038361
H	 2.956835843	 -0.340842073	 -0.892248635
C	 -2.214011750	 -0.105926275	 -1.218619179
O	 -1.599204511	 -1.104023126	 -0.864031071
O	 -1.811425643	 1.133321875	 -0.986148963
H	 -0.950542885	 1.104023126	 -0.489230669
C	 -3.510308328	 -0.160133636	 -1.966239280
H	 -3.796015904	 -1.191269381	 -2.134015038
H	 -4.277810915	 0.356455452	 -1.394975065
H	 -3.402112893	 0.361289699	 -2.914260304
