16
0  1  0  1  0  1   8   8 -14.91860 -13.71679 -13.49166 -14.69347 -13.58074 -14.26171 -9.93610 -9.95739 -10.04670 -14.69936 -37.50275 55.94568 -21.75541 -11.38688
C	 -2.597595474	 0.105902062	 0.000355653
O	 -1.887933258	 1.103994580	 0.000000000
O	 -2.132734045	 -1.133255197	 -0.000141035
H	 -1.138776633	 -1.103994580	 0.000000000
C	 -4.094022534	 0.160154805	 0.003332288
H	 -4.425433498	 1.191148216	 -0.014989869
H	 -4.477303329	 -0.376626122	 -0.861038361
H	 -4.470190789	 -0.340842073	 0.892248635
C	 1.029589799	 -0.105926275	 -0.542323256
O	 0.415103870	 -1.104023126	 -0.187178623
O	 0.626971633	 1.133321875	 -0.309908568
H	 -0.233813612	 1.104023126	 0.187178623
C	 2.325196088	 -0.160133636	 -1.291138973
H	 2.613347945	 -1.191269381	 -1.454681113
H	 2.214218060	 0.356455452	 -2.241447819
H	 3.092108660	 0.361289699	 -0.723428466
