16
0  1  0  1  0  1   8   8 -10.58493 -10.12177 -9.89427 -10.35742 -9.93806 -10.19466 -9.04535 -9.05139 -9.08493 -10.29434 -14.66339 15.84582 -6.69037 -4.78639
C	 -2.775817704	 0.105902062	 0.000355653
O	 -2.066155489	 1.103994580	 0.000000000
O	 -2.310956275	 -1.133255197	 -0.000141035
H	 -1.316998863	 -1.103994580	 0.000000000
C	 -4.272244764	 0.160154805	 0.003332288
H	 -4.603655728	 1.191148216	 -0.014989869
H	 -4.655525560	 -0.376626122	 -0.861038361
H	 -4.648413019	 -0.340842073	 0.892248635
C	 1.515198706	 -0.633890628	 -0.000193382
O	 0.401503697	 -1.143401485	 0.000127928
O	 1.732220645	 0.671772204	 -0.000225441
H	 0.856737269	 1.143401485	 -0.000127928
C	 2.784046459	 -1.429053488	 -0.000883671
H	 2.555408303	 -2.487702187	 0.001560610
H	 3.370603283	 -1.171196530	 -0.879364287
H	 3.374116696	 -1.167642893	 0.874224336
