16
0  1  0  1  0  1   8   8 -17.76512 -16.41701 -16.21659 -17.56471 -16.30804 -17.07365 -12.89549 -12.92046 -13.01315 -17.96715 -45.25104 69.60810 -29.48344 -12.84078
C	 -0.892558096	 1.297889089	 0.293354490
O	 -0.189010008	 2.271207130	 0.533107155
O	 -0.420152408	 0.095666275	 0.005083300
H	 0.573586767	 0.128471138	 0.019706325
C	 -2.389276690	 1.343298340	 0.297551807
H	 -2.726846870	 2.348212519	 0.519610827
H	 -2.763738170	 1.023138968	 -0.671701064
H	 -2.768060852	 0.645658950	 1.040851571
C	 2.799564974	 1.108464452	 0.271261944
O	 2.095946609	 0.135149964	 0.031474342
O	 2.327138640	 2.310899840	 0.559040415
H	 1.333350100	 2.278001606	 0.544639911
C	 4.296277422	 1.062561706	 0.269297549
H	 4.633856986	 0.061242513	 0.031772054
H	 4.677775967	 1.772914645	 -0.460171349
H	 4.667793733	 1.365256223	 1.245352910
