16
0  1  0  1  0  1   8   8 32.01615 34.14666 33.99579 31.86528 33.91407 32.64747 37.05824 37.03960 36.84488 22.33954 -55.71676 164.85389 -66.90710 -19.89049
C	 -2.079608406	 0.105902062	 0.000355653
O	 -1.369946191	 1.103994580	 0.000000000
O	 -1.614746977	 -1.133255197	 -0.000141035
H	 -0.620789565	 -1.103994580	 0.000000000
C	 -3.576035466	 0.160154805	 0.003332288
H	 -3.907446430	 1.191148216	 -0.014989869
H	 -3.959316262	 -0.376626122	 -0.861038361
H	 -3.952203721	 -0.340842073	 0.892248635
C	 1.515198706	 -0.633890628	 -0.000193382
O	 0.401503697	 -1.143401485	 0.000127928
O	 1.732220645	 0.671772204	 -0.000225441
H	 0.856737269	 1.143401485	 -0.000127928
C	 2.784046459	 -1.429053488	 -0.000883671
H	 2.555408303	 -2.487702187	 0.001560610
H	 3.370603283	 -1.171196530	 -0.879364287
H	 3.374116696	 -1.167642893	 0.874224336
