16
0  1  0  1  0  1   8   8 12.09611 14.84851 14.63419 11.88179 14.54771 12.92048 19.33748 19.32230 19.11847  2.93876 -91.91194 207.93579 -87.56462 -25.52047
C	 -0.554255879	 1.299386122	 0.295943465
O	 0.149292209	 2.272704163	 0.535696130
O	 -0.081850191	 0.097163308	 0.007672275
H	 0.911888984	 0.129968171	 0.022295300
C	 -2.050974473	 1.344795373	 0.300140782
H	 -2.388544653	 2.349709552	 0.522199802
H	 -2.425435953	 1.024636001	 -0.669112089
H	 -2.429758635	 0.647155983	 1.043440546
C	 2.799564974	 1.108464452	 0.271261944
O	 2.095946609	 0.135149964	 0.031474342
O	 2.327138640	 2.310899840	 0.559040415
H	 1.333350100	 2.278001606	 0.544639911
C	 4.296277422	 1.062561706	 0.269297549
H	 4.633856986	 0.061242513	 0.031772054
H	 4.677775967	 1.772914645	 -0.460171349
H	 4.667793733	 1.365256223	 1.245352910
