16
0  1  0  1  0  1   8   8 -18.89313 -18.05052 -17.71053 -18.55314 -17.79529 -18.27522 -15.62015 -15.64363 -15.74270 -18.44545 -27.17497 30.20431 -13.56524 -7.90956
C	 -1.146284758	 1.296766314	 0.291412759
O	 -0.442736670	 2.270084355	 0.531165424
O	 -0.673879070	 0.094543500	 0.003141569
H	 0.319860105	 0.127348363	 0.017764594
C	 -2.643003352	 1.342175565	 0.295610076
H	 -2.980573532	 2.347089744	 0.517669096
H	 -3.017464832	 1.022016193	 -0.673642795
H	 -3.021787514	 0.644536175	 1.038909840
C	 2.799564974	 1.108464452	 0.271261944
O	 2.095946609	 0.135149964	 0.031474342
O	 2.327138640	 2.310899840	 0.559040415
H	 1.333350100	 2.278001606	 0.544639911
C	 4.296277422	 1.062561706	 0.269297549
H	 4.633856986	 0.061242513	 0.031772054
H	 4.677775967	 1.772914645	 -0.460171349
H	 4.667793733	 1.365256223	 1.245352910
