16
0  1  0  1  0  1   8   8 -14.99027 -14.40667 -14.06135 -14.64496 -14.13249 -14.46345 -12.48009 -12.49286 -12.57509 -14.64351 -17.82017 15.74080 -7.00509 -5.55905
C	 1.243600650	 0.105902062	 -0.084934512
O	 0.533938435	 1.103994580	 -0.084578859
O	 0.778739221	 -1.133255197	 -0.084437824
H	 -0.215218191	 -1.103994580	 -0.084578859
C	 2.740027710	 0.160154805	 -0.087911147
H	 3.071438675	 1.191148216	 -0.069588990
H	 3.123308506	 -0.376626122	 0.776459502
H	 3.116195965	 -0.340842073	 -0.976827494
C	 -2.532545892	 -0.105926275	 1.388111844
O	 -1.918059963	 -1.104023126	 1.032967211
O	 -2.129927726	 1.133321875	 1.155697156
H	 -1.269142481	 1.104023126	 0.658609965
C	 -3.828152181	 -0.160133636	 2.136927561
H	 -4.116304038	 -1.191269381	 2.300469701
H	 -3.717174152	 0.356455452	 3.087236407
H	 -4.595064753	 0.361289699	 1.569217054
