16
0  1  0  1  0  1   8   8  0.17093  1.38284  1.41452  0.20262  1.35430  0.66341  3.73798  3.73022  3.67079 -1.53904 -36.57619 77.23293 -30.24826 -11.94752
C	 -2.311678172	 0.105902062	 0.000355653
O	 -1.602015957	 1.103994580	 0.000000000
O	 -1.846816743	 -1.133255197	 -0.000141035
H	 -0.852859331	 -1.103994580	 0.000000000
C	 -3.808105232	 0.160154805	 0.003332288
H	 -4.139516196	 1.191148216	 -0.014989869
H	 -4.191386028	 -0.376626122	 -0.861038361
H	 -4.184273487	 -0.340842073	 0.892248635
C	 1.515198706	 -0.633890628	 -0.000193382
O	 0.401503697	 -1.143401485	 0.000127928
O	 1.732220645	 0.671772204	 -0.000225441
H	 0.856737269	 1.143401485	 -0.000127928
C	 2.784046459	 -1.429053488	 -0.000883671
H	 2.555408303	 -2.487702187	 0.001560610
H	 3.370603283	 -1.171196530	 -0.879364287
H	 3.374116696	 -1.167642893	 0.874224336
