16
0  1  0  1  0  1   8   8  1.18726  2.29271  2.18823  1.08278  2.11056  1.49145  7.27802  7.27274  7.21364  1.01867 -33.05731 63.70000 -19.28241 -10.34160
C	 -2.775817704	 0.105902062	 0.000355653
O	 -2.066155489	 1.103994580	 0.000000000
O	 -2.310956275	 -1.133255197	 -0.000141035
H	 -1.316998863	 -1.103994580	 0.000000000
C	 -4.272244764	 0.160154805	 0.003332288
H	 -4.603655728	 1.191148216	 -0.014989869
H	 -4.655525560	 -0.376626122	 -0.861038361
H	 -4.648413019	 -0.340842073	 0.892248635
C	 1.185624326	 0.450420937	 -0.000193382
O	 1.070026168	 -0.768822661	 0.000127928
O	 0.163398115	 1.291198865	 -0.000225441
H	 -0.682786512	 0.768822661	 -0.000127928
C	 2.508679440	 1.151693895	 -0.000883671
H	 3.311177029	 0.424363094	 0.001560610
H	 2.578647176	 1.788595484	 -0.879364287
H	 2.577326342	 1.793415007	 0.874224336
