16
0  1  0  1  0  1   8   8 -6.84036 -6.50232 -6.28081 -6.61885 -6.34045 -6.51602 -4.38221 -4.38740 -4.42205 -6.51313 -8.76321  9.05673 -3.35548 -3.45117
C	 -2.775817704	 0.105902062	 0.000355653
O	 -2.066155489	 1.103994580	 0.000000000
O	 -2.310956275	 -1.133255197	 -0.000141035
H	 -1.316998863	 -1.103994580	 0.000000000
C	 -4.272244764	 0.160154805	 0.003332288
H	 -4.603655728	 1.191148216	 -0.014989869
H	 -4.655525560	 -0.376626122	 -0.861038361
H	 -4.648413019	 -0.340842073	 0.892248635
C	 1.774748390	 0.450420937	 -0.000193382
O	 1.659150232	 -0.768822661	 0.000127928
O	 0.752522179	 1.291198865	 -0.000225441
H	 -0.093662448	 0.768822661	 -0.000127928
C	 3.097803504	 1.151693895	 -0.000883671
H	 3.900301093	 0.424363094	 0.001560610
H	 3.167771240	 1.788595484	 -0.879364287
H	 3.166450406	 1.793415007	 0.874224336
