16
0  1  0  1  0  1   8   8 -14.92092 -13.71915 -13.49393 -14.69570 -13.58301 -14.26397 -9.93919 -9.96046 -10.04978 -14.70229 -37.50813 55.95166 -21.75851 -11.38732
C	 -2.597600705	 0.105902062	 0.000355653
O	 -1.887938490	 1.103994580	 0.000000000
O	 -2.132739276	 -1.133255197	 -0.000141035
H	 -1.138781864	 -1.103994580	 0.000000000
C	 -4.094027765	 0.160154805	 0.003332288
H	 -4.425438729	 1.191148216	 -0.014989869
H	 -4.477308561	 -0.376626122	 -0.861038361
H	 -4.470196020	 -0.340842073	 0.892248635
C	 1.029730868	 -0.105926275	 0.541988309
O	 0.414923629	 -1.104023126	 0.187400201
O	 0.627144761	 1.133321875	 0.309518093
H	 -0.233737997	 1.104023126	 -0.187400201
C	 2.326027446	 -0.160133636	 1.289608410
H	 2.611735022	 -1.191269381	 1.457384168
H	 3.093530034	 0.356455452	 0.718344195
H	 2.217832011	 0.361289699	 2.237629434
