16
0  1  0  1  0  1   8   8  7.85716 10.27221 10.02910  7.61405  9.93688  8.52694 16.10414 16.08658 15.92763  2.78364 -79.34254 168.53630 -64.16415 -22.24597
C	 1.084240528	 0.105902062	 -0.000355653
O	 0.374578313	 1.103994580	 -0.000000000
O	 0.619379099	 -1.133255197	 0.000141035
H	 -0.374578313	 -1.103994580	 0.000000000
C	 2.580667588	 0.160154805	 -0.003332288
H	 2.912078553	 1.191148216	 0.014989869
H	 2.963948384	 -0.376626122	 0.861038361
H	 2.956835843	 -0.340842073	 -0.892248635
C	 -2.054465525	 -0.105926275	 1.134375268
O	 -1.439979596	 -1.104023126	 0.779230635
O	 -1.651847359	 1.133321875	 0.901960580
H	 -0.791062114	 1.104023126	 0.404873389
C	 -3.350071814	 -0.160133636	 1.883190985
H	 -3.638223671	 -1.191269381	 2.046733125
H	 -3.239093785	 0.356455452	 2.833499831
H	 -4.116984386	 0.361289699	 1.315480478
