16
0  1  0  1  0  1   8   8 -16.00455 -14.98982 -14.70357 -15.71830 -14.78969 -15.36553 -11.71832 -11.73846 -11.83089 -15.59703 -31.12703 41.70619 -16.56701 -9.60918
C	 -2.686709204	 0.105902062	 0.000355653
O	 -1.977046989	 1.103994580	 0.000000000
O	 -2.221847775	 -1.133255197	 -0.000141035
H	 -1.227890363	 -1.103994580	 0.000000000
C	 -4.183136264	 0.160154805	 0.003332288
H	 -4.514547228	 1.191148216	 -0.014989869
H	 -4.566417060	 -0.376626122	 -0.861038361
H	 -4.559304519	 -0.340842073	 0.892248635
C	 1.029730868	 -0.105926275	 0.541988309
O	 0.414923629	 -1.104023126	 0.187400201
O	 0.627144761	 1.133321875	 0.309518093
H	 -0.233737997	 1.104023126	 -0.187400201
C	 2.326027446	 -0.160133636	 1.289608410
H	 2.611735022	 -1.191269381	 1.457384168
H	 3.093530034	 0.356455452	 0.718344195
H	 2.217832011	 0.361289699	 2.237629434
