18
0  1  0  1  0  1   9   9 -7.25706 -5.87648 -5.83907 -7.21965 -5.93306 -6.71061  0.39905  0.38615  0.30619 -7.09127 -44.91300 75.85478 -24.30613 -13.72691
C	 -2.590038448	 0.111016007	 0.001780484
O	 -1.956989298	 1.169207310	 0.000000000
N	 -1.998737298	 -1.097568788	 0.000893062
H	 -0.979594123	 -1.169207310	 0.000000000
H	 -2.555060369	 -1.930106635	 0.003214070
C	 -4.099582002	 0.120915423	 0.006408681
H	 -4.438085092	 0.653260861	 0.891794846
H	 -4.538251040	 -0.873385150	 -0.005103427
H	 -4.443428807	 0.676620149	 -0.862249539
C	 1.065504263	 -0.111142227	 -0.561187859
O	 0.517062010	 -1.169239361	 -0.244884280
N	 0.554491659	 1.097522471	 -0.263878567
H	 -0.328561744	 1.169239361	 0.244884280
H	 1.035958351	 1.929995230	 -0.542776355
C	 2.370390846	 -0.121033495	 -1.320182424
H	 2.764878412	 0.872906892	 -1.514231771
H	 2.215862806	 -0.636978129	 -2.264660048
H	 3.097359069	 -0.692560893	 -0.748990732
