18
0  1  0  1  0  1   9   9 -7.24929 -5.86903 -5.83198 -7.21224 -5.92599 -6.70332  0.40836  0.39543  0.31550 -7.08252 -44.90009 75.81713 -24.27726 -13.72231
C	 -2.589940170	 0.111016007	 0.001780484
O	 -1.956891020	 1.169207310	 0.000000000
N	 -1.998639020	 -1.097568788	 0.000893062
H	 -0.979495845	 -1.169207310	 0.000000000
H	 -2.554962091	 -1.930106635	 0.003214070
C	 -4.099483724	 0.120915423	 0.006408681
H	 -4.437986814	 0.653260861	 0.891794846
H	 -4.538152762	 -0.873385150	 -0.005103427
H	 -4.443330529	 0.676620149	 -0.862249539
C	 1.066371530	 -0.111142227	 0.560536821
O	 0.518223469	 -1.169239361	 0.243723686
N	 0.553387828	 1.097522471	 0.266641570
H	 -0.328740423	 1.169239361	 -0.243723686
H	 1.035653744	 1.929995230	 0.544155062
C	 2.376123396	 -0.121033495	 1.311104468
H	 2.741418843	 0.872906892	 1.555716048
H	 3.116800992	 -0.636978129	 0.705040448
H	 2.244940992	 -0.692560893	 2.226273263
