18
0  1  0  1  0  1   9   9 -13.70878 -13.16198 -12.83122 -13.37801 -12.89479 -13.19983 -10.51101 -10.51228 -10.57315 -13.38710 -17.18744 15.46357 -6.04843 -5.61480
C	 -3.078332774	 0.111016007	 0.001780484
O	 -2.445283624	 1.169207310	 0.000000000
N	 -2.487031624	 -1.097568788	 0.000893062
H	 -1.467888449	 -1.169207310	 0.000000000
H	 -3.043354695	 -1.930106635	 0.003214070
C	 -4.587876328	 0.120915423	 0.006408681
H	 -4.926379418	 0.653260861	 0.891794846
H	 -5.026545366	 -0.873385150	 -0.005103427
H	 -4.931723133	 0.676620149	 -0.862249539
C	 1.065504263	 -0.111142227	 -0.561187859
O	 0.517062010	 -1.169239361	 -0.244884280
N	 0.554491659	 1.097522471	 -0.263878567
H	 -0.328561744	 1.169239361	 0.244884280
H	 1.035958351	 1.929995230	 -0.542776355
C	 2.370390846	 -0.121033495	 -1.320182424
H	 2.764878412	 0.872906892	 -1.514231771
H	 2.215862806	 -0.636978129	 -2.264660048
H	 3.097359069	 -0.692560893	 -0.748990732
