18
0  1  0  1  0  1   9   9 -7.75303 -7.28231 -7.03733 -7.50806 -7.09785 -7.34720 -4.63274 -4.63202 -4.66095 -7.42274 -13.56460 15.67736 -4.67948 -4.85603
C	 -2.980673909	 0.111016007	 0.001780484
O	 -2.347624759	 1.169207310	 -0.000000000
N	 -2.389372759	 -1.097568788	 0.000893062
H	 -1.370229584	 -1.169207310	 -0.000000000
H	 -2.945695830	 -1.930106635	 0.003214070
C	 -4.490217463	 0.120915423	 0.006408681
H	 -4.828720553	 0.653260861	 0.891794846
H	 -4.928886501	 -0.873385150	 -0.005103427
H	 -4.834064268	 0.676620149	 -0.862249539
C	 1.552644935	 0.464610348	 -0.000375877
O	 1.533398345	 -0.768287007	 -0.000670069
N	 0.436314433	 1.215742410	 0.001595221
H	 -0.482134839	 0.768287007	 0.000670069
H	 0.501944357	 2.214890607	 0.000795997
C	 2.864909794	 1.210825365	 -0.005241160
H	 2.747831107	 2.290933453	 0.023950959
H	 3.415956889	 0.933211007	 -0.900446796
H	 3.448566402	 0.887856670	 0.852909467
