18
0  1  0  1  0  1   9   9 -13.69874 -13.15232 -12.82170 -13.36812 -12.88520 -13.19003 -10.50102 -10.50226 -10.56304 -13.37767 -17.17571 15.44952 -6.03959 -5.61189
C	 -3.078357344	 0.111016007	 0.001780484
O	 -2.445308194	 1.169207310	 0.000000000
N	 -2.487056194	 -1.097568788	 0.000893062
H	 -1.467913019	 -1.169207310	 0.000000000
H	 -3.043379265	 -1.930106635	 0.003214070
C	 -4.587900898	 0.120915423	 0.006408681
H	 -4.926403988	 0.653260861	 0.891794846
H	 -5.026569936	 -0.873385150	 -0.005103427
H	 -4.931747703	 0.676620149	 -0.862249539
C	 1.066371530	 -0.111142227	 0.560536821
O	 0.518223469	 -1.169239361	 0.243723686
N	 0.553387828	 1.097522471	 0.266641570
H	 -0.328740423	 1.169239361	 -0.243723686
H	 1.035653744	 1.929995230	 0.544155062
C	 2.376123396	 -0.121033495	 1.311104468
H	 2.741418843	 0.872906892	 1.555716048
H	 3.116800992	 -0.636978129	 0.705040448
H	 2.244940992	 -0.692560893	 2.226273263
