18
0  1  0  1  0  1   9   9 -13.05683 -12.60737 -12.28293 -12.73238 -12.34071 -12.58687 -10.39696 -10.39696 -10.44370 -12.81961 -14.62651 11.21742 -4.67956 -4.73096
C	 -3.175991639	 0.111016007	 0.001780484
O	 -2.542942489	 1.169207310	 0.000000000
N	 -2.584690489	 -1.097568788	 0.000893062
H	 -1.565547314	 -1.169207310	 0.000000000
H	 -3.141013560	 -1.930106635	 0.003214070
C	 -4.685535193	 0.120915423	 0.006408681
H	 -5.024038283	 0.653260861	 0.891794846
H	 -5.124204231	 -0.873385150	 -0.005103427
H	 -5.029381998	 0.676620149	 -0.862249539
C	 1.065504263	 -0.111142227	 -0.561187859
O	 0.517062010	 -1.169239361	 -0.244884280
N	 0.554491659	 1.097522471	 -0.263878567
H	 -0.328561744	 1.169239361	 0.244884280
H	 1.035958351	 1.929995230	 -0.542776355
C	 2.370390846	 -0.121033495	 -1.320182424
H	 2.764878412	 0.872906892	 -1.514231771
H	 2.215862806	 -0.636978129	 -2.264660048
H	 3.097359069	 -0.692560893	 -0.748990732
