18
0  1  0  1  0  1   9   9 -9.83754 -9.52813 -9.32140 -9.63081 -9.36208 -9.52884 -8.21657 -8.21941 -8.24642 -9.62309 -11.25037  8.44405 -3.50824 -3.30854
C	 1.236224739	 0.064542828	 -0.001780484
O	 0.603175589	 1.122734131	 0.000000000
N	 0.644923588	 -1.144041967	 -0.000893062
H	 -0.374219587	 -1.215680489	 0.000000000
H	 1.201246660	 -1.976579814	 -0.003214070
C	 2.745768293	 0.074442244	 -0.006408681
H	 3.084271383	 0.606787682	 -0.891794846
H	 3.184437331	 -0.919858329	 0.005103427
H	 3.089615097	 0.630146970	 0.862249539
C	 -3.316573207	 1.394073933	 0.000375877
O	 -3.297326616	 0.161176579	 0.000670069
N	 -2.200242706	 2.145205996	 -0.001595221
H	 -1.281793434	 1.697750593	 -0.000670069
H	 -2.265872630	 3.144354193	 -0.000795997
C	 -4.628838065	 2.140288950	 0.005241160
H	 -4.511759378	 3.220397039	 -0.023950959
H	 -5.179885161	 1.862674593	 0.900446796
H	 -5.212494674	 1.817320256	 -0.852909467
