18
0  1  0  1  0  1   9   9 -2.61956 -1.65995 -1.65087 -2.61048 -1.71926 -2.25256  2.68624  2.68452  2.64170 -2.70123 -32.64666 56.13215 -16.53469 -9.65203
C	 1.121746738	 0.111016007	 -0.001780484
O	 0.488697588	 1.169207310	 0.000000000
N	 0.530445587	 -1.097568788	 -0.000893062
H	 -0.488697588	 -1.169207310	 -0.000000000
H	 1.086768659	 -1.930106635	 -0.003214070
C	 2.631290292	 0.120915423	 -0.006408681
H	 2.969793382	 0.653260861	 -0.891794846
H	 3.069959330	 -0.873385150	 0.005103427
H	 2.975137096	 0.676620149	 0.862249539
C	 -2.776969211	 -1.400685201	 0.000375877
O	 -1.699625486	 -2.000465841	 0.000670069
N	 -2.869303408	 -0.058348596	 -0.001595221
H	 -2.022571026	 0.513324104	 -0.000670069
H	 -3.767406091	 0.384388321	 -0.000795997
C	 -4.079342801	 -2.164032396	 0.005241160
H	 -4.956204501	 -1.522585234	 -0.023950959
H	 -4.114445263	 -2.780060358	 0.900446796
H	 -4.091472012	 -2.830978193	 -0.852909467
