18
0  1  0  1  0  1   9   9 -13.04681 -12.59779 -12.27354 -12.72256 -12.33124 -12.57714 -10.38711 -10.38707 -10.43371 -12.81024 -14.61574 11.20647 -4.67257 -4.72839
C	 -3.176040778	 0.111016007	 0.001780484
O	 -2.542991628	 1.169207310	 0.000000000
N	 -2.584739628	 -1.097568788	 0.000893062
H	 -1.565596453	 -1.169207310	 0.000000000
H	 -3.141062699	 -1.930106635	 0.003214070
C	 -4.685584332	 0.120915423	 0.006408681
H	 -5.024087422	 0.653260861	 0.891794846
H	 -5.124253370	 -0.873385150	 -0.005103427
H	 -5.029431137	 0.676620149	 -0.862249539
C	 1.066371530	 -0.111142227	 0.560536821
O	 0.518223469	 -1.169239361	 0.243723686
N	 0.553387828	 1.097522471	 0.266641570
H	 -0.328740423	 1.169239361	 -0.243723686
H	 1.035653744	 1.929995230	 0.544155062
C	 2.376123396	 -0.121033495	 1.311104468
H	 2.741418843	 0.872906892	 1.555716048
H	 3.116800992	 -0.636978129	 0.705040448
H	 2.244940992	 -0.692560893	 2.226273263
