18
0  1  0  1  0  1   9   9 -14.21633 -13.45029 -13.14441 -13.91045 -13.21907 -13.65263 -9.81773 -9.82227 -9.90251 -13.73148 -23.72300 27.44591 -9.78968 -7.66471
C	 1.034803933	 0.111016007	 0.044692695
O	 0.401754783	 1.169207310	 0.046473179
N	 0.443502782	 -1.097568788	 0.045580117
H	 -0.575640393	 -1.169207310	 0.046473179
H	 0.999825854	 -1.930106635	 0.043259109
C	 2.544347487	 0.120915423	 0.040064498
H	 2.882850577	 0.653260861	 -0.845321667
H	 2.983016525	 -0.873385150	 0.051576606
H	 2.888194291	 0.676620149	 0.908722718
C	 -2.710110224	 -0.111142227	 1.490651445
O	 -2.161667970	 -1.169239361	 1.174347865
N	 -2.199097621	 1.097522471	 1.193342153
H	 -1.316044218	 1.169239361	 0.684579306
H	 -2.680564313	 1.929995230	 1.472239941
C	 -4.014996807	 -0.121033495	 2.249646009
H	 -4.409484373	 0.872906892	 2.443695356
H	 -3.860468768	 -0.636978129	 3.194123634
H	 -4.741965030	 -0.692560893	 1.678454317
