18
0  1  0  1  0  1   9   9 -8.31517 -8.08224 -7.86460 -8.09753 -7.90537 -8.02213 -6.93285 -6.93382 -6.94727 -8.16411 -8.40104  4.77301 -2.04527 -2.49081
C	 1.121746738	 0.111016007	 -0.001780484
O	 0.488697588	 1.169207310	 0.000000000
N	 0.530445587	 -1.097568788	 -0.000893062
H	 -0.488697588	 -1.169207310	 -0.000000000
H	 1.086768659	 -1.930106635	 -0.003214070
C	 2.631290292	 0.120915423	 -0.006408681
H	 2.969793382	 0.653260861	 -0.891794846
H	 3.069959330	 -0.873385150	 0.005103427
H	 2.975137096	 0.676620149	 0.862249539
C	 -3.474881057	 -1.679524277	 0.000375877
O	 -2.397537332	 -2.279304917	 0.000670069
N	 -3.567215254	 -0.337187672	 -0.001595221
H	 -2.720482872	 0.234485028	 -0.000670069
H	 -4.465317937	 0.105549245	 -0.000795997
C	 -4.777254647	 -2.442871472	 0.005241160
H	 -5.654116347	 -1.801424310	 -0.023950959
H	 -4.812357109	 -3.058899434	 0.900446796
H	 -4.789383858	 -3.109817269	 -0.852909467
