18
0  1  0  1  0  1   9   9  9.01238 11.06063 10.71140  8.66315 10.61058  9.43509 19.63585 19.62288 19.50523  6.93292 -69.97159 141.61383 -44.60957 -20.09975
C	 -2.394573301	 0.111016007	 0.001780484
O	 -1.761524151	 1.169207310	 0.000000000
N	 -1.803272151	 -1.097568788	 0.000893062
H	 -0.784128976	 -1.169207310	 0.000000000
H	 -2.359595222	 -1.930106635	 0.003214070
C	 -3.904116855	 0.120915423	 0.006408681
H	 -4.242619945	 0.653260861	 0.891794846
H	 -4.342785893	 -0.873385150	 -0.005103427
H	 -4.247963660	 0.676620149	 -0.862249539
C	 1.066371530	 -0.111142227	 0.560536821
O	 0.518223469	 -1.169239361	 0.243723686
N	 0.553387828	 1.097522471	 0.266641570
H	 -0.328740423	 1.169239361	 -0.243723686
H	 1.035653744	 1.929995230	 0.544155062
C	 2.376123396	 -0.121033495	 1.311104468
H	 2.741418843	 0.872906892	 1.555716048
H	 3.116800992	 -0.636978129	 0.705040448
H	 2.244940992	 -0.692560893	 2.226273263
