18
0  1  0  1  0  1   9   9 -14.20994 -13.44401 -13.13846 -13.90438 -13.21318 -13.64663 -9.80907 -9.81360 -9.89382 -13.72441 -23.71102 27.43515 -9.78341 -7.66513
C	 1.034782084	 0.111016007	 -0.048253663
O	 0.401732934	 1.169207310	 -0.046473179
N	 0.443480933	 -1.097568788	 -0.047366241
H	 -0.575662242	 -1.169207310	 -0.046473179
H	 0.999804005	 -1.930106635	 -0.049687249
C	 2.544325638	 0.120915423	 -0.052881860
H	 2.882828728	 0.653260861	 -0.938268025
H	 2.982994676	 -0.873385150	 -0.041369752
H	 2.888172442	 0.676620149	 0.815776360
C	 -2.710923083	 -0.111142227	 -1.490000406
O	 -2.162775021	 -1.169239361	 -1.173187272
N	 -2.197939382	 1.097522471	 -1.196105156
H	 -1.315811131	 1.169239361	 -0.685739900
H	 -2.680205298	 1.929995230	 -1.473618648
C	 -4.020674949	 -0.121033495	 -2.240568054
H	 -4.385970396	 0.872906892	 -2.485179634
H	 -4.761352546	 -0.636978129	 -1.634504034
H	 -3.889492545	 -0.692560893	 -3.155736849
