18
0  1  0  1  0  1   9   9 -8.39248 -7.05851 -6.99512 -8.32909 -7.08759 -7.83892 -0.98512 -0.99754 -1.07715 -8.14256 -43.45335 71.68897 -23.11723 -13.26096
C	 1.121746738	 0.111016007	 -0.001780484
O	 0.488697588	 1.169207310	 0.000000000
N	 0.530445587	 -1.097568788	 -0.000893062
H	 -0.488697588	 -1.169207310	 -0.000000000
H	 1.086768659	 -1.930106635	 -0.003214070
C	 2.631290292	 0.120915423	 -0.006408681
H	 2.969793382	 0.653260861	 -0.891794846
H	 3.069959330	 -0.873385150	 0.005103427
H	 2.975137096	 0.676620149	 0.862249539
C	 -2.363064468	 -0.111142227	 -1.304107689
O	 -1.814916406	 -1.169239361	 -0.987294555
N	 -1.850080767	 1.097522471	 -1.010212439
H	 -0.967952516	 1.169239361	 -0.499847183
H	 -2.332346683	 1.929995230	 -1.287725931
C	 -3.672816334	 -0.121033495	 -2.054675337
H	 -4.038111781	 0.872906892	 -2.299286917
H	 -4.413493931	 -0.636978129	 -1.448611317
H	 -3.541633930	 -0.692560893	 -2.969844132
