18
0  1  0  1  0  1   9   9 -13.71335 -13.19021 -12.85933 -13.38247 -12.92144 -13.21268 -10.65210 -10.65278 -10.71136 -13.41330 -16.67877 14.37759 -5.72056 -5.39157
C	 1.208711392	 0.111016007	 0.044692695
O	 0.575662242	 1.169207310	 0.046473179
N	 0.617410241	 -1.097568788	 0.045580117
H	 -0.401732934	 -1.169207310	 0.046473179
H	 1.173733313	 -1.930106635	 0.043259109
C	 2.718254946	 0.120915423	 0.040064498
H	 3.056758036	 0.653260861	 -0.845321667
H	 3.156923984	 -0.873385150	 0.051576606
H	 3.062101750	 0.676620149	 0.908722718
C	 -2.710923083	 -0.111142227	 -1.490000406
O	 -2.162775021	 -1.169239361	 -1.173187272
N	 -2.197939382	 1.097522471	 -1.196105156
H	 -1.315811131	 1.169239361	 -0.685739900
H	 -2.680205298	 1.929995230	 -1.473618648
C	 -4.020674949	 -0.121033495	 -2.240568054
H	 -4.385970396	 0.872906892	 -2.485179634
H	 -4.761352546	 -0.636978129	 -1.634504034
H	 -3.889492545	 -0.692560893	 -3.155736849
