18
0  1  0  1  0  1   9   9 -7.07300 -6.84024 -6.60059 -6.83336 -6.64495 -6.75817 -5.44579 -5.44404 -5.45422 -6.92757 -7.22822  4.68466 -1.81298 -2.57103
C	 -2.980673909	 0.111016007	 0.001780484
O	 -2.347624759	 1.169207310	 -0.000000000
N	 -2.389372759	 -1.097568788	 0.000893062
H	 -1.370229584	 -1.169207310	 -0.000000000
H	 -2.945695830	 -1.930106635	 0.003214070
C	 -4.490217463	 0.120915423	 0.006408681
H	 -4.828720553	 0.653260861	 0.891794846
H	 -4.928886501	 -0.873385150	 -0.005103427
H	 -4.834064268	 0.676620149	 -0.862249539
C	 1.929154239	 0.464610348	 -0.000375877
O	 1.909907649	 -0.768287007	 -0.000670069
N	 0.812823737	 1.215742410	 0.001595221
H	 -0.105625535	 0.768287007	 0.000670069
H	 0.878453661	 2.214890607	 0.000795997
C	 3.241419098	 1.210825365	 -0.005241160
H	 3.124340411	 2.290933453	 0.023950959
H	 3.792466193	 0.933211007	 -0.900446796
H	 3.825075706	 0.887856670	 0.852909467
