18
0  1  0  1  0  1   9   9 28.66863 30.45435 30.09779 28.31207 30.01398 28.97573 35.92420 35.91327 35.78447 22.31789 -57.59043 149.78676 -51.66795 -18.21048
C	 -2.233503956	 0.111016007	 0.001780484
O	 -1.600454806	 1.169207310	 0.000000000
N	 -1.642202806	 -1.097568788	 0.000893062
H	 -0.623059631	 -1.169207310	 0.000000000
H	 -2.198525877	 -1.930106635	 0.003214070
C	 -3.743047510	 0.120915423	 0.006408681
H	 -4.081550600	 0.653260861	 0.891794846
H	 -4.181716548	 -0.873385150	 -0.005103427
H	 -4.086894315	 0.676620149	 -0.862249539
C	 1.547510292	 -0.657114332	 -0.000375877
O	 0.470166568	 -1.256894973	 -0.000670069
N	 1.639844488	 0.685222273	 0.001595221
H	 0.793112106	 1.256894973	 0.000670069
H	 2.537947171	 1.127959190	 0.000795997
C	 2.849883883	 -1.420461527	 -0.005241160
H	 3.726745583	 -0.779014366	 0.023950959
H	 2.884986344	 -2.036489489	 -0.900446796
H	 2.862013093	 -2.087407325	 0.852909467
