18
0  1  0  1  0  1   9   9 -12.99455 -12.56596 -12.24381 -12.67240 -12.30015 -12.53389 -10.45529 -10.45484 -10.49877 -12.77694 -14.21761 10.40457 -4.42599 -4.53790
C	 1.295632347	 0.111016007	 -0.094726843
O	 0.662583197	 1.169207310	 -0.092946359
N	 0.704331196	 -1.097568788	 -0.093839421
H	 -0.314811979	 -1.169207310	 -0.092946359
H	 1.260654268	 -1.930106635	 -0.096160429
C	 2.805175901	 0.120915423	 -0.099355040
H	 3.143678991	 0.653260861	 -0.984741205
H	 3.243844939	 -0.873385150	 -0.087842932
H	 3.149022705	 0.676620149	 0.769303180
C	 -2.710110224	 -0.111142227	 1.490651445
O	 -2.161667970	 -1.169239361	 1.174347865
N	 -2.199097621	 1.097522471	 1.193342153
H	 -1.316044218	 1.169239361	 0.684579306
H	 -2.680564313	 1.929995230	 1.472239941
C	 -4.014996807	 -0.121033495	 2.249646009
H	 -4.409484373	 0.872906892	 2.443695356
H	 -3.860468768	 -0.636978129	 3.194123634
H	 -4.741965030	 -0.692560893	 1.678454317
