18
0  1  0  1  0  1   9   9 -9.40846 -9.03449 -8.80170 -9.17566 -8.85179 -9.05143 -7.19879 -7.19972 -7.22912 -9.12328 -12.33321 10.94780 -3.90248 -3.83539
C	 1.121746738	 0.111016007	 -0.001780484
O	 0.488697588	 1.169207310	 0.000000000
N	 0.530445587	 -1.097568788	 -0.000893062
H	 -0.488697588	 -1.169207310	 -0.000000000
H	 1.086768659	 -1.930106635	 -0.003214070
C	 2.631290292	 0.120915423	 -0.006408681
H	 2.969793382	 0.653260861	 -0.891794846
H	 3.069959330	 -0.873385150	 0.005103427
H	 2.975137096	 0.676620149	 0.862249539
C	 -3.242243775	 -1.586577918	 0.000375877
O	 -2.164900050	 -2.186358558	 0.000670069
N	 -3.334577972	 -0.244241313	 -0.001595221
H	 -2.487845590	 0.327431387	 -0.000670069
H	 -4.232680655	 0.198495604	 -0.000795997
C	 -4.544617365	 -2.349925113	 0.005241160
H	 -5.421479065	 -1.708477951	 -0.023950959
H	 -4.579719827	 -2.965953075	 0.900446796
H	 -4.556746576	 -3.016870910	 -0.852909467
