18
0  1  0  1  0  1   9   9 -8.40104 -7.06715 -7.00301 -8.33690 -7.09549 -7.84677 -0.99995 -1.01237 -1.09199 -8.15402 -43.46508 71.69572 -23.12586 -13.25879
C	 1.121746738	 0.111016007	 -0.001780484
O	 0.488697588	 1.169207310	 0.000000000
N	 0.530445587	 -1.097568788	 -0.000893062
H	 -0.488697588	 -1.169207310	 -0.000000000
H	 1.086768659	 -1.930106635	 -0.003214070
C	 2.631290292	 0.120915423	 -0.006408681
H	 2.969793382	 0.653260861	 -0.891794846
H	 3.069959330	 -0.873385150	 0.005103427
H	 2.975137096	 0.676620149	 0.862249539
C	 -2.362339005	 -0.111142227	 1.304758728
O	 -1.813896751	 -1.169239361	 0.988455148
N	 -1.851326402	 1.097522471	 1.007449436
H	 -0.968272999	 1.169239361	 0.498686589
H	 -2.332793094	 1.929995230	 1.286347224
C	 -3.667225588	 -0.121033495	 2.063753292
H	 -4.061713154	 0.872906892	 2.257802639
H	 -3.512697549	 -0.636978129	 3.008230917
H	 -4.394193811	 -0.692560893	 1.492561600
