18
0  1  0  1  0  1   9   9 -9.44018 -8.97009 -8.75031 -9.22040 -8.80513 -9.05925 -6.67138 -6.67260 -6.70588 -9.08404 -15.33421 16.53734 -5.49531 -4.79186
C	 1.121746738	 0.111016007	 -0.001780484
O	 0.488697588	 1.169207310	 0.000000000
N	 0.530445587	 -1.097568788	 -0.000893062
H	 -0.488697588	 -1.169207310	 -0.000000000
H	 1.086768659	 -1.930106635	 -0.003214070
C	 2.631290292	 0.120915423	 -0.006408681
H	 2.969793382	 0.653260861	 -0.891794846
H	 3.069959330	 -0.873385150	 0.005103427
H	 2.975137096	 0.676620149	 0.862249539
C	 -3.125925134	 -1.540104739	 0.000375877
O	 -2.048581409	 -2.139885379	 0.000670069
N	 -3.218259331	 -0.197768134	 -0.001595221
H	 -2.371526949	 0.373904566	 -0.000670069
H	 -4.116362014	 0.244968783	 -0.000795997
C	 -4.428298724	 -2.303451934	 0.005241160
H	 -5.305160424	 -1.662004772	 -0.023950959
H	 -4.463401186	 -2.919479896	 0.900446796
H	 -4.440427935	 -2.970397731	 -0.852909467
