18
0  1  0  1  0  1   9   9 -14.06058 -13.39966 -13.07618 -13.73709 -13.14590 -13.51837 -10.22910 -10.23213 -10.30487 -13.64598 -20.39216 21.28497 -7.86277 -6.67602
C	 -2.980673909	 0.111016007	 0.001780484
O	 -2.347624759	 1.169207310	 0.000000000
N	 -2.389372759	 -1.097568788	 0.000893062
H	 -1.370229584	 -1.169207310	 0.000000000
H	 -2.945695830	 -1.930106635	 0.003214070
C	 -4.490217463	 0.120915423	 0.006408681
H	 -4.828720553	 0.653260861	 0.891794846
H	 -4.928886501	 -0.873385150	 -0.005103427
H	 -4.834064268	 0.676620149	 -0.862249539
C	 1.066371530	 -0.111142227	 0.560536821
O	 0.518223469	 -1.169239361	 0.243723686
N	 0.553387828	 1.097522471	 0.266641570
H	 -0.328740423	 1.169239361	 -0.243723686
H	 1.035653744	 1.929995230	 0.544155062
C	 2.376123396	 -0.121033495	 1.311104468
H	 2.741418843	 0.872906892	 1.555716048
H	 3.116800992	 -0.636978129	 0.705040448
H	 2.244940992	 -0.692560893	 2.226273263
