18
0  1  0  1  0  1   9   9 -14.18086 -13.54590 -13.21865 -13.85362 -13.28682 -13.64476 -10.50398 -10.50624 -10.57797 -13.78598 -19.78061 19.86971 -7.45394 -6.42115
C	 1.121746738	 0.111016007	 -0.001780484
O	 0.488697588	 1.169207310	 0.000000000
N	 0.530445587	 -1.097568788	 -0.000893062
H	 -0.488697588	 -1.169207310	 0.000000000
H	 1.086768659	 -1.930106635	 -0.003214070
C	 2.631290292	 0.120915423	 -0.006408681
H	 2.969793382	 0.653260861	 -0.891794846
H	 3.069959330	 -0.873385150	 0.005103427
H	 2.975137096	 0.676620149	 0.862249539
C	 -2.710923083	 -0.111142227	 -1.490000406
O	 -2.162775021	 -1.169239361	 -1.173187272
N	 -2.197939382	 1.097522471	 -1.196105156
H	 -1.315811131	 1.169239361	 -0.685739900
H	 -2.680205298	 1.929995230	 -1.473618648
C	 -4.020674949	 -0.121033495	 -2.240568054
H	 -4.385970396	 0.872906892	 -2.485179634
H	 -4.761352546	 -0.636978129	 -1.634504034
H	 -3.889492545	 -0.692560893	 -3.155736849
