18
0  1  0  1  0  1   9   9 -16.07176 -15.42102 -15.08161 -15.73236 -15.15744 -15.52227 -12.58440 -12.59627 -12.67319 -15.63095 -21.28169 20.32521 -8.26595 -6.40852
C	 -1.402496735	 1.178252958	 -0.030942916
O	 -0.818047428	 2.153224454	 0.446940771
N	 -0.758368146	 0.093131481	 -0.497767066
H	 0.261835672	 0.049524951	 -0.465081792
H	 -1.276374027	 -0.675522907	 -0.876528671
C	 -2.909466330	 1.154075434	 -0.116378550
H	 -3.313375939	 1.260618240	 0.887309811
H	 -3.302174528	 0.246710801	 -0.567672665
H	 -3.235905122	 2.014672418	 -0.694665690
C	 2.793888264	 1.064181930	 0.135246428
O	 2.209466501	 0.090161494	 -0.344484538
N	 2.149800700	 2.148925153	 0.603092982
H	 1.129695332	 2.193362937	 0.568791665
H	 2.667824766	 2.916886353	 0.983213632
C	 4.300887446	 1.088466310	 0.220471513
H	 4.692758510	 1.988115826	 0.687655523
H	 4.704443640	 1.000921273	 -0.785308796
H	 4.628666208	 0.217891406	 0.782651851
