18
0  1  0  1  0  1   9   9 -8.59931 -7.05346 -7.06628 -8.61212 -7.16634 -8.03911 -0.93765 -0.95481 -1.04234 -8.92664 -53.37042 92.22973 -32.49924 -15.28670
C	 -0.938761784	 1.187869033	 -0.002080041
O	 -0.354312477	 2.162840529	 0.475803646
N	 -0.294633195	 0.102747556	 -0.468904191
H	 0.725570623	 0.059141026	 -0.436218917
H	 -0.812639076	 -0.665906832	 -0.847665796
C	 -2.445731379	 1.163691509	 -0.087515675
H	 -2.849640988	 1.270234315	 0.916172686
H	 -2.838439577	 0.256326876	 -0.538809790
H	 -2.772170171	 2.024288493	 -0.665802815
C	 2.793888264	 1.064181930	 0.135246428
O	 2.209466501	 0.090161494	 -0.344484538
N	 2.149800700	 2.148925153	 0.603092982
H	 1.129695332	 2.193362937	 0.568791665
H	 2.667824766	 2.916886353	 0.983213632
C	 4.300887446	 1.088466310	 0.220471513
H	 4.692758510	 1.988115826	 0.687655523
H	 4.704443640	 1.000921273	 -0.785308796
H	 4.628666208	 0.217891406	 0.782651851
