18
0  1  0  1  0  1   9   9 -9.17320 -8.93176 -8.73363 -8.97507 -8.76848 -8.89568 -7.91164 -7.91343 -7.93186 -9.02241 -9.36030  5.52306 -2.52362 -2.66155
C	 1.350702740	 0.018069648	 -0.001780484
O	 0.717653590	 1.076260951	 0.000000000
N	 0.759401589	 -1.190515147	 -0.000893062
H	 -0.259741586	 -1.262153669	 0.000000000
H	 1.315724662	 -2.023052994	 -0.003214070
C	 2.860246295	 0.027969064	 -0.006408681
H	 3.198749385	 0.560314502	 -0.891794846
H	 3.298915333	 -0.966331509	 0.005103427
H	 3.204093099	 0.583673790	 0.862249539
C	 -3.316573207	 1.394073933	 0.000375877
O	 -3.297326616	 0.161176579	 0.000670069
N	 -2.200242706	 2.145205996	 -0.001595221
H	 -1.281793434	 1.697750593	 -0.000670069
H	 -2.265872630	 3.144354193	 -0.000795997
C	 -4.628838065	 2.140288950	 0.005241160
H	 -4.511759378	 3.220397039	 -0.023950959
H	 -5.179885161	 1.862674593	 0.900446796
H	 -5.212494674	 1.817320256	 -0.852909467
