18
0  1  0  1  0  1   9   9 -6.92852 -6.33661 -6.12743 -6.71934 -6.19332 -6.50994 -3.07056 -3.07062 -3.10028 -6.55823 -17.32410 23.39261 -6.57306 -6.05368
C	 -2.980673909	 0.111016007	 0.001780484
O	 -2.347624759	 1.169207310	 -0.000000000
N	 -2.389372759	 -1.097568788	 0.000893062
H	 -1.370229584	 -1.169207310	 -0.000000000
H	 -2.945695830	 -1.930106635	 0.003214070
C	 -4.490217463	 0.120915423	 0.006408681
H	 -4.828720553	 0.653260861	 0.891794846
H	 -4.928886501	 -0.873385150	 -0.005103427
H	 -4.834064268	 0.676620149	 -0.862249539
C	 1.427141833	 0.464610348	 -0.000375877
O	 1.407895243	 -0.768287007	 -0.000670069
N	 0.310811331	 1.215742410	 0.001595221
H	 -0.607637941	 0.768287007	 0.000670069
H	 0.376441255	 2.214890607	 0.000795997
C	 2.739406692	 1.210825365	 -0.005241160
H	 2.622328005	 2.290933453	 0.023950959
H	 3.290453787	 0.933211007	 -0.900446796
H	 3.323063300	 0.887856670	 0.852909467
