18
0  1  0  1  0  1   9   9 -9.29195 -9.00231 -8.81133 -9.10097 -8.84756 -9.00391 -7.74092 -7.74295 -7.76628 -9.11536 -10.40145  7.88745 -3.34494 -3.25642
C	 -3.105202234	 0.111016007	 0.001780484
O	 -2.472153084	 1.169207310	 0.000000000
N	 -2.513901084	 -1.097568788	 0.000893062
H	 -1.494757909	 -1.169207310	 0.000000000
H	 -3.070224155	 -1.930106635	 0.003214070
C	 -4.614745788	 0.120915423	 0.006408681
H	 -4.953248878	 0.653260861	 0.891794846
H	 -5.053414826	 -0.873385150	 -0.005103427
H	 -4.958592593	 0.676620149	 -0.862249539
C	 1.547510292	 -0.657114332	 -0.000375877
O	 0.470166568	 -1.256894973	 -0.000670069
N	 1.639844488	 0.685222273	 0.001595221
H	 0.793112106	 1.256894973	 0.000670069
H	 2.537947171	 1.127959190	 0.000795997
C	 2.849883883	 -1.420461527	 -0.005241160
H	 3.726745583	 -0.779014366	 0.023950959
H	 2.884986344	 -2.036489489	 -0.900446796
H	 2.862013093	 -2.087407325	 0.852909467
