18
0  1  0  1  0  1   9   9 -15.17985 -14.09488 -13.87896 -14.96393 -13.97396 -14.58055 -9.51562 -9.53479 -9.61601 -14.67194 -36.07381 50.51296 -18.41764 -10.69344
C	 -1.124255765	 1.184022603	 -0.013625191
O	 -0.539806458	 2.158994099	 0.464258496
N	 -0.480127176	 0.098901126	 -0.480449341
H	 0.540076642	 0.055294596	 -0.447764067
H	 -0.998133057	 -0.669753262	 -0.859210946
C	 -2.631225360	 1.159845079	 -0.099060825
H	 -3.035134969	 1.266387885	 0.904627536
H	 -3.023933558	 0.252480446	 -0.550354940
H	 -2.957664152	 2.020442063	 -0.677347965
C	 2.793888264	 1.064181930	 0.135246428
O	 2.209466501	 0.090161494	 -0.344484538
N	 2.149800700	 2.148925153	 0.603092982
H	 1.129695332	 2.193362937	 0.568791665
H	 2.667824766	 2.916886353	 0.983213632
C	 4.300887446	 1.088466310	 0.220471513
H	 4.692758510	 1.988115826	 0.687655523
H	 4.704443640	 1.000921273	 -0.785308796
H	 4.628666208	 0.217891406	 0.782651851
