18
0  1  0  1  0  1   9   9 -10.07869 -9.58229 -9.39863 -9.89503 -9.45191 -9.72219 -7.47709 -7.48230 -7.51572 -9.74135 -17.09748 19.60326 -7.06558 -5.18154
C	 1.007268737	 0.157489186	 -0.001780484
O	 0.374219587	 1.215680489	 0.000000000
N	 0.415967586	 -1.051095609	 -0.000893062
H	 -0.603175589	 -1.122734131	 0.000000000
H	 0.972290658	 -1.883633456	 -0.003214070
C	 2.516812291	 0.167388602	 -0.006408681
H	 2.855315381	 0.699734040	 -0.891794846
H	 2.955481329	 -0.826911971	 0.005103427
H	 2.860659095	 0.723093328	 0.862249539
C	 -3.316573207	 1.394073933	 0.000375877
O	 -3.297326616	 0.161176579	 0.000670069
N	 -2.200242706	 2.145205996	 -0.001595221
H	 -1.281793434	 1.697750593	 -0.000670069
H	 -2.265872630	 3.144354193	 -0.000795997
C	 -4.628838065	 2.140288950	 0.005241160
H	 -4.511759378	 3.220397039	 -0.023950959
H	 -5.179885161	 1.862674593	 0.900446796
H	 -5.212494674	 1.817320256	 -0.852909467
