18
0  1  0  1  0  1   9   9 -9.65617 -9.28497 -9.09615 -9.46735 -9.13892 -9.34071 -7.67626 -7.67965 -7.70791 -9.41279 -12.74859 12.15037 -4.73971 -4.07486
C	 -2.980673909	 0.111016007	 0.001780484
O	 -2.347624759	 1.169207310	 0.000000000
N	 -2.389372759	 -1.097568788	 0.000893062
H	 -1.370229584	 -1.169207310	 0.000000000
H	 -2.945695830	 -1.930106635	 0.003214070
C	 -4.490217463	 0.120915423	 0.006408681
H	 -4.828720553	 0.653260861	 0.891794846
H	 -4.928886501	 -0.873385150	 -0.005103427
H	 -4.834064268	 0.676620149	 -0.862249539
C	 1.547510292	 -0.657114332	 -0.000375877
O	 0.470166568	 -1.256894973	 -0.000670069
N	 1.639844488	 0.685222273	 0.001595221
H	 0.793112106	 1.256894973	 0.000670069
H	 2.537947171	 1.127959190	 0.000795997
C	 2.849883883	 -1.420461527	 -0.005241160
H	 3.726745583	 -0.779014366	 0.023950959
H	 2.884986344	 -2.036489489	 -0.900446796
H	 2.862013093	 -2.087407325	 0.852909467
