18
0  1  0  1  0  1   9   9  9.41609 11.67538 11.30041  9.04112 11.20149  9.89083 19.51887 19.50862 19.36238  5.55008 -80.45901 167.16910 -58.93217 -22.22784
C	 -0.753267804	 1.191715462	 0.009465109
O	 -0.168818497	 2.166686958	 0.487348796
N	 -0.109139215	 0.106593985	 -0.457359041
H	 0.911064603	 0.062987455	 -0.424673767
H	 -0.627145096	 -0.662060403	 -0.836120646
C	 -2.260237399	 1.167537938	 -0.075970525
H	 -2.664147008	 1.274080744	 0.927717836
H	 -2.652945597	 0.260173305	 -0.527264640
H	 -2.586676191	 2.028134922	 -0.654257665
C	 2.793888264	 1.064181930	 0.135246428
O	 2.209466501	 0.090161494	 -0.344484538
N	 2.149800700	 2.148925153	 0.603092982
H	 1.129695332	 2.193362937	 0.568791665
H	 2.667824766	 2.916886353	 0.983213632
C	 4.300887446	 1.088466310	 0.220471513
H	 4.692758510	 1.988115826	 0.687655523
H	 4.704443640	 1.000921273	 -0.785308796
H	 4.628666208	 0.217891406	 0.782651851
