18
0  1  0  1  0  1   9   9 -14.18699 -13.55194 -13.22443 -13.85948 -13.29256 -13.65059 -10.51167 -10.51394 -10.58570 -13.79252 -19.79172 19.87949 -7.45922 -6.42106
C	 1.121746738	 0.111016007	 -0.001780484
O	 0.488697588	 1.169207310	 0.000000000
N	 0.530445587	 -1.097568788	 -0.000893062
H	 -0.488697588	 -1.169207310	 0.000000000
H	 1.086768659	 -1.930106635	 -0.003214070
C	 2.631290292	 0.120915423	 -0.006408681
H	 2.969793382	 0.653260861	 -0.891794846
H	 3.069959330	 -0.873385150	 0.005103427
H	 2.975137096	 0.676620149	 0.862249539
C	 -2.710110224	 -0.111142227	 1.490651445
O	 -2.161667970	 -1.169239361	 1.174347865
N	 -2.199097621	 1.097522471	 1.193342153
H	 -1.316044218	 1.169239361	 0.684579306
H	 -2.680564313	 1.929995230	 1.472239941
C	 -4.014996807	 -0.121033495	 2.249646009
H	 -4.409484373	 0.872906892	 2.443695356
H	 -3.860468768	 -0.636978129	 3.194123634
H	 -4.741965030	 -0.692560893	 1.678454317
