20
0  1  0  1  0  1   8  12 -8.86899 -8.59282 -8.31273 -8.58890 -8.36188 -8.49933 -7.13651 -7.14137 -7.15607 -8.58464 -8.92177  6.44665 -2.78538 -3.32414
C	 -2.823166136	 0.079083363	 -0.001434231
O	 -2.151749103	 1.102372169	 0.006767466
O	 -2.316970309	 -1.144729898	 -0.008928734
H	 -1.324231984	 -1.102372169	 -0.006767466
C	 -4.321515672	 0.075481379	 -0.004297580
H	 -4.692333914	 1.093138507	 0.003014001
H	 -4.679971234	 -0.450510223	 -0.885943059
H	 -4.683488188	 -0.464532931	 0.867369114
N	 3.176478083	 0.979722269	 -0.006752519
H	 3.967737317	 0.350493805	 -0.010930936
C	 3.476031092	 2.354841220	 -0.005691127
O	 4.634388805	 2.731407727	 -0.009418138
C	 2.291472935	 3.191567469	 0.000000000
H	 2.413860670	 4.260841756	 0.001083167
C	 1.068672259	 2.620041753	 0.003793713
H	 0.157149904	 3.199017877	 0.008130481
N	 0.893356785	 1.263175027	 0.002398135
H	 -0.040644869	 0.836824918	 0.005100210
C	 1.941443936	 0.386073289	 -0.003258361
O	 1.797504323	 -0.836824918	 -0.005100210
