20
0  1  0  1  0  1   8  12 -9.59150 -9.04694 -8.84319 -9.38775 -8.90325 -9.19466 -6.23231 -6.23778 -6.26458 -9.13257 -16.98539 21.00117 -7.04361 -6.10474
C	 -2.823166136	 0.079083363	 -0.001434231
O	 -2.151749103	 1.102372169	 0.006767466
O	 -2.316970309	 -1.144729898	 -0.008928734
H	 -1.324231984	 -1.102372169	 -0.006767466
C	 -4.321515672	 0.075481379	 -0.004297580
H	 -4.692333914	 1.093138507	 0.003014001
H	 -4.679971234	 -0.450510223	 -0.885943059
H	 -4.683488188	 -0.464532931	 0.867369114
N	 2.819693501	 0.979722269	 -0.006752519
H	 3.610952735	 0.350493805	 -0.010930936
C	 3.119246510	 2.354841220	 -0.005691127
O	 4.277604223	 2.731407727	 -0.009418138
C	 1.934688353	 3.191567469	 -0.000000000
H	 2.057076088	 4.260841756	 0.001083167
C	 0.711887677	 2.620041753	 0.003793713
H	 -0.199634678	 3.199017877	 0.008130481
N	 0.536572203	 1.263175027	 0.002398135
H	 -0.397429451	 0.836824918	 0.005100210
C	 1.584659354	 0.386073289	 -0.003258361
O	 1.440719741	 -0.836824918	 -0.005100210
