20
0  1  0  1  0  1   8  12 -16.04085 -14.99349 -14.81054 -15.85790 -14.89048 -15.48281 -10.87154 -10.88745 -10.96577 -15.48844 -33.77909 46.55062 -17.61661 -10.64335
C	 1.085175593	 0.079083363	 0.001434231
O	 0.413758560	 1.102372169	 -0.006767466
O	 0.578979765	 -1.144729898	 0.008928734
H	 -0.413758560	 -1.102372169	 0.006767466
C	 2.583525129	 0.075481379	 0.004297580
H	 2.954343371	 1.093138507	 -0.003014001
H	 2.941980690	 -0.450510223	 0.885943059
H	 2.945497645	 -0.464532931	 -0.867369114
N	 -3.615907846	 -0.300559805	 2.027958292
H	 -3.934799147	 -1.241117256	 2.216895091
C	 -4.436547271	 0.740551636	 2.500529096
O	 -5.466510132	 0.487488941	 3.099482012
C	 -3.913287311	 2.057456902	 2.191853269
H	 -4.468629044	 2.922281731	 2.511229235
C	 -2.750605766	 2.173901451	 1.516198164
H	 -2.319836401	 3.131070660	 1.262485686
N	 -2.030880845	 1.086478134	 1.102276262
H	 -1.147115629	 1.184248935	 0.588914089
C	 -2.434321767	 -0.197157828	 1.341734545
O	 -1.795915676	 -1.184248935	 0.975277401
