20
0  1  0  1  0  1   8  12 -10.34551 -9.93030 -9.68584 -10.10105 -9.73898 -9.96471 -7.90400 -7.90962 -7.94851 -9.84345 -13.41460 13.31155 -5.34108 -4.39932
C	 1.085175593	 0.079083363	 0.001434231
O	 0.413758560	 1.102372169	 -0.006767466
O	 0.578979765	 -1.144729898	 0.008928734
H	 -0.413758560	 -1.102372169	 0.006767466
C	 2.583525129	 0.075481379	 0.004297580
H	 2.954343371	 1.093138507	 -0.003014001
H	 2.941980690	 -0.450510223	 0.885943059
H	 2.945497645	 -0.464532931	 -0.867369114
N	 -4.222386606	 -2.369302393	 0.006752519
H	 -4.073088390	 -3.369167223	 0.010930936
C	 -5.563051056	 -1.941163432	 0.005691127
O	 -6.468346075	 -2.756047386	 0.009418138
C	 -5.695398165	 -0.496942852	 0.000000000
H	 -6.682610729	 -0.068296596	 -0.001083167
C	 -4.589042038	 0.276270739	 -0.003793713
H	 -4.634688893	 1.355160316	 -0.008130481
N	 -3.326303248	 -0.250334970	 -0.002398135
H	 -2.490072394	 0.345359135	 -0.005100210
C	 -3.090754436	 -1.596555937	 0.003258361
O	 -1.959723716	 -2.083349679	 0.005100210
