20
0  1  0  1  0  1   8  12 -19.29695 -18.54038 -18.20565 -18.96222 -18.28207 -18.71112 -15.86761 -15.88637 -15.97132 -18.71153 -25.61694 26.45955 -11.85278 -7.70137
C	 -1.113626115	 1.327020095	 0.275167055
O	 -0.467082641	 2.349387782	 0.461537462
O	 -0.578089388	 0.136920485	 0.049617473
H	 0.413320364	 0.203256605	 0.055487108
C	 -2.611424686	 1.286189573	 0.277361307
H	 -3.006648718	 2.276885447	 0.465789827
H	 -2.964256227	 0.915258679	 -0.682001232
H	 -2.953114211	 0.591798210	 1.041240412
N	 4.283844412	 1.090353988	 0.182522737
H	 4.677049525	 0.174963759	 0.010803310
C	 5.205372319	 2.138469606	 0.363975847
O	 6.402518704	 1.920173798	 0.311095884
C	 4.566306248	 3.417931988	 0.604582998
H	 5.185841012	 4.284856866	 0.756060272
C	 3.219222046	 3.497922143	 0.633964234
H	 2.696381855	 4.426369144	 0.809262443
N	 2.415491295	 2.407240156	 0.443558203
H	 1.391439465	 2.477187848	 0.467348464
C	 2.915423781	 1.157017372	 0.209385980
O	 2.203391335	 0.167512485	 0.035915800
