20
0  1  0  1  0  1   8  12 -9.60144 -8.94215 -8.77726 -9.43654 -8.83672 -9.19940 -5.91756 -5.92250 -5.96020 -8.98437 -21.37898 30.02869 -10.80518 -6.82890
C	 1.085175593	 0.079083363	 0.001434231
O	 0.413758560	 1.102372169	 -0.006767466
O	 0.578979765	 -1.144729898	 0.008928734
H	 -0.413758560	 -1.102372169	 0.006767466
C	 2.583525129	 0.075481379	 0.004297580
H	 2.954343371	 1.093138507	 -0.003014001
H	 2.941980690	 -0.450510223	 0.885943059
H	 2.945497645	 -0.464532931	 -0.867369114
N	 -3.999896800	 -2.282402866	 0.006752519
H	 -3.850598584	 -3.282267696	 0.010930936
C	 -5.340561251	 -1.854263905	 0.005691127
O	 -6.245856270	 -2.669147859	 0.009418138
C	 -5.472908359	 -0.410043325	 0.000000000
H	 -6.460120923	 0.018602931	 -0.001083167
C	 -4.366552233	 0.363170266	 -0.003793713
H	 -4.412199087	 1.442059843	 -0.008130481
N	 -3.103813442	 -0.163435443	 -0.002398135
H	 -2.267582588	 0.432258662	 -0.005100210
C	 -2.868264631	 -1.509656410	 0.003258361
O	 -1.737233911	 -1.996450152	 0.005100210
