20
0  1  0  1  0  1   8  12 -9.79564 -9.36074 -9.10859 -9.54349 -9.16459 -9.39463 -7.08515 -7.08967 -7.11572 -9.37948 -13.50602 14.19345 -5.10342 -4.96350
C	 -2.823166136	 0.079083363	 -0.001434231
O	 -2.151749103	 1.102372169	 0.006767466
O	 -2.316970309	 -1.144729898	 -0.008928734
H	 -1.324231984	 -1.102372169	 -0.006767466
C	 -4.321515672	 0.075481379	 -0.004297580
H	 -4.692333914	 1.093138507	 0.003014001
H	 -4.679971234	 -0.450510223	 -0.885943059
H	 -4.683488188	 -0.464532931	 0.867369114
N	 2.938621695	 0.979722269	 -0.006752519
H	 3.729880929	 0.350493805	 -0.010930936
C	 3.238174704	 2.354841220	 -0.005691127
O	 4.396532417	 2.731407727	 -0.009418138
C	 2.053616547	 3.191567469	 0.000000000
H	 2.176004282	 4.260841756	 0.001083167
C	 0.830815871	 2.620041753	 0.003793713
H	 -0.080706484	 3.199017877	 0.008130481
N	 0.655500397	 1.263175027	 0.002398135
H	 -0.278501257	 0.836824918	 0.005100210
C	 1.703587548	 0.386073289	 -0.003258361
O	 1.559647935	 -0.836824918	 -0.005100210
