20
0  1  0  1  0  1   8  12 -16.19263 -15.62899 -15.27234 -15.83598 -15.33805 -15.65494 -13.43125 -13.44095 -13.50975 -15.77291 -18.58749 15.93664 -7.15573 -5.96634
C	 -2.823166136	 0.079083363	 -0.001434231
O	 -2.151749103	 1.102372169	 0.006767466
O	 -2.316970309	 -1.144729898	 -0.008928734
H	 -1.324231984	 -1.102372169	 -0.006767466
C	 -4.321515672	 0.075481379	 -0.004297580
H	 -4.692333914	 1.093138507	 0.003014001
H	 -4.679971234	 -0.450510223	 -0.885943059
H	 -4.683488188	 -0.464532931	 0.867369114
N	 2.410298583	 -0.300559805	 1.234166842
H	 2.733368300	 -1.241117256	 1.415866410
C	 3.229876616	 0.740551636	 1.708576030
O	 4.263566488	 0.487488941	 2.301073574
C	 2.700925529	 2.057456902	 1.409757524
H	 3.255184095	 2.922281731	 1.731009590
C	 1.534450271	 2.173901451	 0.740673323
H	 1.099344137	 3.131070660	 0.494472348
N	 0.816120927	 1.086478134	 0.324334208
H	 -0.070346363	 1.184248935	 -0.184347833
C	 1.225218345	 -0.197157828	 0.553995154
O	 0.588654103	 -1.184248935	 0.184347833
