20
0  1  0  1  0  1   8  12 -15.93134 -14.80359 -14.64550 -15.77325 -14.72810 -15.36500 -10.49054 -10.50806 -10.58550 -15.52772 -36.88577 53.33609 -20.42793 -11.55012
C	 -2.823166136	 0.079083363	 -0.001434231
O	 -2.151749103	 1.102372169	 0.006767466
O	 -2.316970309	 -1.144729898	 -0.008928734
H	 -1.324231984	 -1.102372169	 -0.006767466
C	 -4.321515672	 0.075481379	 -0.004297580
H	 -4.692333914	 1.093138507	 0.003014001
H	 -4.679971234	 -0.450510223	 -0.885943059
H	 -4.683488188	 -0.464532931	 0.867369114
N	 2.047181417	 -0.300559805	 1.234166842
H	 2.370251134	 -1.241117256	 1.415866410
C	 2.866759450	 0.740551636	 1.708576030
O	 3.900449322	 0.487488941	 2.301073574
C	 2.337808363	 2.057456902	 1.409757524
H	 2.892066929	 2.922281731	 1.731009590
C	 1.171333105	 2.173901451	 0.740673323
H	 0.736226971	 3.131070660	 0.494472348
N	 0.453003761	 1.086478134	 0.324334208
H	 -0.433463529	 1.184248935	 -0.184347833
C	 0.862101179	 -0.197157828	 0.553995154
O	 0.225536937	 -1.184248935	 0.184347833
