20
0  1  0  1  0  1   8  12 -10.27864 -8.52002 -8.68239 -10.44102 -8.76782 -9.77764 -3.21780 -3.23466 -3.33542 -11.75592 -61.06863 111.39453 -44.48710 -17.59473
C	 -1.113626115	 1.327020095	 0.275167055
O	 -0.467082641	 2.349387782	 0.461537462
O	 -0.578089388	 0.136920485	 0.049617473
H	 0.413320364	 0.203256605	 0.055487108
C	 -2.611424686	 1.286189573	 0.277361307
H	 -3.006648718	 2.276885447	 0.465789827
H	 -2.964256227	 0.915258679	 -0.682001232
H	 -2.953114211	 0.591798210	 1.041240412
N	 3.849488093	 1.079394947	 0.184160868
H	 4.242693206	 0.164004718	 0.012441441
C	 4.771016000	 2.127510565	 0.365613978
O	 5.968162385	 1.909214757	 0.312734015
C	 4.131949929	 3.406972947	 0.606221129
H	 4.751484693	 4.273897825	 0.757698403
C	 2.784865727	 3.486963102	 0.635602365
H	 2.262025536	 4.415410103	 0.810900574
N	 1.981134976	 2.396281115	 0.445196334
H	 0.957083146	 2.466228807	 0.468986595
C	 2.481067462	 1.146058331	 0.211024111
O	 1.769035016	 0.156553444	 0.037553931
