20
0  1  0  1  0  1   8  12 -10.33251 -10.05300 -9.78508 -10.06459 -9.81640 -9.96993 -9.26336 -9.26576 -9.28957 -10.07262 -10.39154  7.02109 -3.47348 -3.22868
C	 -2.823166136	 0.079083363	 -0.001434231
O	 -2.151749103	 1.102372169	 0.006767466
O	 -2.316970309	 -1.144729898	 -0.008928734
H	 -1.324231984	 -1.102372169	 -0.006767466
C	 -4.321515672	 0.075481379	 -0.004297580
H	 -4.692333914	 1.093138507	 0.003014001
H	 -4.679971234	 -0.450510223	 -0.885943059
H	 -4.683488188	 -0.464532931	 0.867369114
N	 2.871597319	 -1.500307121	 -0.006752519
H	 2.722299102	 -2.500171951	 -0.010930936
C	 4.212261769	 -1.072168161	 -0.005691127
O	 5.117556787	 -1.887052114	 -0.009418138
C	 4.344608878	 0.372052420	 0.000000000
H	 5.331821442	 0.800698676	 0.001083167
C	 3.238252751	 1.145266011	 0.003793713
H	 3.283899605	 2.224155588	 0.008130481
N	 1.975513960	 0.618660302	 0.002398135
H	 1.139283107	 1.214354407	 0.005100210
C	 1.739965149	 -0.727560665	 -0.003258361
O	 0.608934429	 -1.214354407	 -0.005100210
