20
0  1  0  1  0  1   8  12 -8.66806 -7.04143 -7.17159 -8.79822 -7.25533 -8.18527 -1.26680 -1.28328 -1.37326 -9.42334 -54.21038 96.89958 -35.77446 -16.33809
C	 -2.823166136	 0.079083363	 -0.001434231
O	 -2.151749103	 1.102372169	 0.006767466
O	 -2.316970309	 -1.144729898	 -0.008928734
H	 -1.324231984	 -1.102372169	 -0.006767466
C	 -4.321515672	 0.075481379	 -0.004297580
H	 -4.692333914	 1.093138507	 0.003014001
H	 -4.679971234	 -0.450510223	 -0.885943059
H	 -4.683488188	 -0.464532931	 0.867369114
N	 1.859826353	 -0.300559805	 -1.245862548
H	 2.178717653	 -1.241117256	 -1.434799346
C	 2.680465778	 0.740551636	 -1.718433351
O	 3.710428638	 0.487488941	 -2.317386267
C	 2.157205817	 2.057456902	 -1.409757524
H	 2.712547551	 2.922281731	 -1.729133490
C	 0.994524273	 2.173901451	 -0.734102419
H	 0.563754907	 3.131070660	 -0.480389941
N	 0.274799351	 1.086478134	 -0.320180517
H	 -0.608965864	 1.184248935	 0.193181656
C	 0.678240273	 -0.197157828	 -0.559638800
O	 0.039834182	 -1.184248935	 -0.193181656
