20
0  1  0  1  0  1   8  12 -2.23472 -1.13877 -1.17856 -2.27451 -1.24527 -1.86674  3.19760  3.19377  3.13110 -2.37628 -35.73473 66.87044 -22.67135 -10.84064
C	 1.085175593	 0.079083363	 0.001434231
O	 0.413758560	 1.102372169	 -0.006767466
O	 0.578979765	 -1.144729898	 0.008928734
H	 -0.413758560	 -1.102372169	 0.006767466
C	 2.583525129	 0.075481379	 0.004297580
H	 2.954343371	 1.093138507	 -0.003014001
H	 2.941980690	 -0.450510223	 0.885943059
H	 2.945497645	 -0.464532931	 -0.867369114
N	 -3.777406995	 -2.195503339	 0.006752519
H	 -3.628108779	 -3.195368169	 0.010930936
C	 -5.118071445	 -1.767364378	 0.005691127
O	 -6.023366464	 -2.582248332	 0.009418138
C	 -5.250418554	 -0.323143798	 0.000000000
H	 -6.237631118	 0.105502458	 -0.001083167
C	 -4.144062427	 0.450069793	 -0.003793713
H	 -4.189709282	 1.528959370	 -0.008130481
N	 -2.881323637	 -0.076535916	 -0.002398135
H	 -2.045092783	 0.519158189	 -0.005100210
C	 -2.645774825	 -1.422756883	 0.003258361
O	 -1.514744105	 -1.909550625	 0.005100210
