20
0  1  0  1  0  1   8  12 -11.50019 -11.05633 -10.78575 -11.22961 -10.82619 -11.07048 -9.71845 -9.72292 -9.74913 -11.11045 -15.28877 16.19131 -7.04151 -4.97148
C	 -2.823166136	 0.079083363	 -0.001434231
O	 -2.151749103	 1.102372169	 0.006767466
O	 -2.316970309	 -1.144729898	 -0.008928734
H	 -1.324231984	 -1.102372169	 -0.006767466
C	 -4.321515672	 0.075481379	 -0.004297580
H	 -4.692333914	 1.093138507	 0.003014001
H	 -4.679971234	 -0.450510223	 -0.885943059
H	 -4.683488188	 -0.464532931	 0.867369114
N	 2.634133745	 -1.500307121	 -0.006752519
H	 2.484835528	 -2.500171951	 -0.010930936
C	 3.974798195	 -1.072168161	 -0.005691127
O	 4.880093213	 -1.887052114	 -0.009418138
C	 4.107145304	 0.372052420	 0.000000000
H	 5.094357868	 0.800698676	 0.001083167
C	 3.000789177	 1.145266011	 0.003793713
H	 3.046436031	 2.224155588	 0.008130481
N	 1.738050386	 0.618660302	 0.002398135
H	 0.901819533	 1.214354407	 0.005100210
C	 1.502501575	 -0.727560665	 -0.003258361
O	 0.371470855	 -1.214354407	 -0.005100210
