20
0  1  0  1  0  1   8  12 11.08084 13.64491 13.08827 10.52420 13.00313 11.49676 19.98604 19.97106 19.79745  4.08315 -88.13367 195.34287 -78.00258 -25.12347
C	 -1.113626115	 1.327020095	 0.275167055
O	 -0.467082641	 2.349387782	 0.461537462
O	 -0.578089388	 0.136920485	 0.049617473
H	 0.413320364	 0.203256605	 0.055487108
C	 -2.611424686	 1.286189573	 0.277361307
H	 -3.006648718	 2.276885447	 0.465789827
H	 -2.964256227	 0.915258679	 -0.682001232
H	 -2.953114211	 0.591798210	 1.041240412
N	 3.675745566	 1.075011330	 0.184816121
H	 4.068950679	 0.159621101	 0.013096694
C	 4.597273473	 2.123126948	 0.366269231
O	 5.794419858	 1.904831140	 0.313389268
C	 3.958207402	 3.402589330	 0.606876382
H	 4.577742166	 4.269514209	 0.758353656
C	 2.611123200	 3.482579486	 0.636257618
H	 2.088283009	 4.411026486	 0.811555827
N	 1.807392449	 2.391897498	 0.445851587
H	 0.783340619	 2.461845191	 0.469641848
C	 2.307324935	 1.141674714	 0.211679364
O	 1.595292489	 0.152169827	 0.038209184
