20
0  1  0  1  0  1   8  12 -10.12207 -8.60675 -8.69986 -10.21518 -8.78471 -9.64554 -2.95518 -2.97351 -3.05371 -10.32880 -50.04590 85.85212 -30.99275 -15.14227
C	 1.085175593	 0.079083363	 0.001434231
O	 0.413758560	 1.102372169	 -0.006767466
O	 0.578979765	 -1.144729898	 0.008928734
H	 -0.413758560	 -1.102372169	 0.006767466
C	 2.583525129	 0.075481379	 0.004297580
H	 2.954343371	 1.093138507	 -0.003014001
H	 2.941980690	 -0.450510223	 0.885943059
H	 2.945497645	 -0.464532931	 -0.867369114
N	 -3.452406107	 -0.300559805	 1.941058765
H	 -3.771297408	 -1.241117256	 2.129995564
C	 -4.273045532	 0.740551636	 2.413629569
O	 -5.303008393	 0.487488941	 3.012582485
C	 -3.749785572	 2.057456902	 2.104953742
H	 -4.305127305	 2.922281731	 2.424329708
C	 -2.587104027	 2.173901451	 1.429298637
H	 -2.156334662	 3.131070660	 1.175586159
N	 -1.867379106	 1.086478134	 1.015376735
H	 -0.983613890	 1.184248935	 0.502014562
C	 -2.270820028	 -0.197157828	 1.254835018
O	 -1.632413937	 -1.184248935	 0.888377874
