20
0  1  0  1  0  1   8  12 -10.13930 -8.62381 -8.71722 -10.23271 -8.80174 -9.66294 -2.99139 -3.00958 -3.08998 -10.36455 -50.08673 85.96579 -31.08767 -15.15594
C	 1.085175593	 0.079083363	 0.001434231
O	 0.413758560	 1.102372169	 -0.006767466
O	 0.578979765	 -1.144729898	 0.008928734
H	 -0.413758560	 -1.102372169	 0.006767466
C	 2.583525129	 0.075481379	 0.004297580
H	 2.954343371	 1.093138507	 -0.003014001
H	 2.941980690	 -0.450510223	 0.885943059
H	 2.945497645	 -0.464532931	 -0.867369114
N	 -3.458067529	 -0.300559805	 -1.929363060
H	 -3.781137247	 -1.241117256	 -2.111062628
C	 -4.277645562	 0.740551636	 -2.403772247
O	 -5.311335434	 0.487488941	 -2.996269792
C	 -3.748694475	 2.057456902	 -2.104953742
H	 -4.302953041	 2.922281731	 -2.426205808
C	 -2.582219217	 2.173901451	 -1.435869540
H	 -2.147113084	 3.131070660	 -1.189668566
N	 -1.863889874	 1.086478134	 -1.019530426
H	 -0.977422583	 1.184248935	 -0.510848384
C	 -2.272987292	 -0.197157828	 -1.249191372
O	 -1.636423050	 -1.184248935	 -0.879544051
