20
0  1  0  1  0  1   8  12 -11.98565 -11.55063 -11.35683 -11.79185 -11.40472 -11.64103 -10.17798 -10.18707 -10.21669 -11.66076 -15.54174 14.88431 -6.18800 -4.81533
C	 1.085175593	 0.079083363	 0.001434231
O	 0.413758560	 1.102372169	 -0.006767466
O	 0.578979765	 -1.144729898	 0.008928734
H	 -0.413758560	 -1.102372169	 0.006767466
C	 2.583525129	 0.075481379	 0.004297580
H	 2.954343371	 1.093138507	 -0.003014001
H	 2.941980690	 -0.450510223	 0.885943059
H	 2.945497645	 -0.464532931	 -0.867369114
N	 -4.474785027	 1.848717540	 0.006752519
H	 -5.266044262	 1.219489077	 0.010930936
C	 -4.774338036	 3.223836492	 0.005691127
O	 -5.932695750	 3.600402999	 0.009418138
C	 -3.589779879	 4.060562740	 0.000000000
H	 -3.712167614	 5.129837028	 -0.001083167
C	 -2.366979203	 3.489037024	 -0.003793713
H	 -1.455456849	 4.068013149	 -0.008130481
N	 -2.191663730	 2.132170299	 -0.002398135
H	 -1.257662075	 1.705820189	 -0.005100210
C	 -3.239750880	 1.255068561	 0.003258361
O	 -3.095811267	 0.032170354	 0.005100210
