20
0  1  0  1  0  1   8  12 -16.27730 -15.66094 -15.32074 -15.93711 -15.38760 -15.73732 -13.22354 -13.23367 -13.30960 -15.79860 -19.90421 18.39788 -7.88827 -6.40399
C	 1.085175593	 0.079083363	 0.001434231
O	 0.413758560	 1.102372169	 -0.006767466
O	 0.578979765	 -1.144729898	 0.008928734
H	 -0.413758560	 -1.102372169	 0.006767466
C	 2.583525129	 0.075481379	 0.004297580
H	 2.954343371	 1.093138507	 -0.003014001
H	 2.941980690	 -0.450510223	 0.885943059
H	 2.945497645	 -0.464532931	 -0.867369114
N	 -3.861160455	 -0.300559805	 2.158307583
H	 -4.180051756	 -1.241117256	 2.347244382
C	 -4.681799880	 0.740551636	 2.630878387
O	 -5.711762741	 0.487488941	 3.229831303
C	 -4.158539920	 2.057456902	 2.322202560
H	 -4.713881653	 2.922281731	 2.641578526
C	 -2.995858375	 2.173901451	 1.646547455
H	 -2.565089010	 3.131070660	 1.392834977
N	 -2.276133454	 1.086478134	 1.232625553
H	 -1.392368238	 1.184248935	 0.719263380
C	 -2.679574376	 -0.197157828	 1.472083836
O	 -2.041168285	 -1.184248935	 1.105626692
