20
0  1  0  1  0  1   8  12 -16.31214 -15.69495 -15.35485 -15.97204 -15.42148 -15.77185 -13.26654 -13.27673 -13.35277 -15.83569 -19.94915 18.44415 -7.91845 -6.41224
C	 1.085175593	 0.079083363	 0.001434231
O	 0.413758560	 1.102372169	 -0.006767466
O	 0.578979765	 -1.144729898	 0.008928734
H	 -0.413758560	 -1.102372169	 0.006767466
C	 2.583525129	 0.075481379	 0.004297580
H	 2.954343371	 1.093138507	 -0.003014001
H	 2.941980690	 -0.450510223	 0.885943059
H	 2.945497645	 -0.464532931	 -0.867369114
N	 -3.866480909	 -0.300559805	 -2.146611878
H	 -4.189550627	 -1.241117256	 -2.328311446
C	 -4.686058942	 0.740551636	 -2.621021065
O	 -5.719748814	 0.487488941	 -3.213518610
C	 -4.157107855	 2.057456902	 -2.322202560
H	 -4.711366421	 2.922281731	 -2.643454626
C	 -2.990632597	 2.173901451	 -1.653118358
H	 -2.555526464	 3.131070660	 -1.406917384
N	 -2.272303254	 1.086478134	 -1.236779244
H	 -1.385835963	 1.184248935	 -0.728097202
C	 -2.681400672	 -0.197157828	 -1.466440190
O	 -2.044836430	 -1.184248935	 -1.096792869
