20
0  1  0  1  0  1   8  12 -8.47738 -7.79252 -7.67183 -8.35670 -7.73591 -8.10590 -4.33363 -4.34062 -4.36692 -8.04880 -21.66610 31.00841 -9.84725 -7.54385
C	 -2.823166136	 0.079083363	 -0.001434231
O	 -2.151749103	 1.102372169	 0.006767466
O	 -2.316970309	 -1.144729898	 -0.008928734
H	 -1.324231984	 -1.102372169	 -0.006767466
C	 -4.321515672	 0.075481379	 -0.004297580
H	 -4.692333914	 1.093138507	 0.003014001
H	 -4.679971234	 -0.450510223	 -0.885943059
H	 -4.683488188	 -0.464532931	 0.867369114
N	 2.700765307	 0.979722269	 -0.006752519
H	 3.492024541	 0.350493805	 -0.010930936
C	 3.000318316	 2.354841220	 -0.005691127
O	 4.158676029	 2.731407727	 -0.009418138
C	 1.815760159	 3.191567469	 -0.000000000
H	 1.938147894	 4.260841756	 0.001083167
C	 0.592959483	 2.620041753	 0.003793713
H	 -0.318562872	 3.199017877	 0.008130481
N	 0.417644009	 1.263175027	 0.002398135
H	 -0.516357645	 0.836824918	 0.005100210
C	 1.465731160	 0.386073289	 -0.003258361
O	 1.321791547	 -0.836824918	 -0.005100210
