20
0  1  0  1  0  1   8  12 -16.19063 -15.62749 -15.27108 -15.83422 -15.33665 -15.65324 -13.43397 -13.44363 -13.51222 -15.77081 -18.57089 15.92146 -7.15780 -5.96357
C	 -2.823166136	 0.079083363	 -0.001434231
O	 -2.151749103	 1.102372169	 0.006767466
O	 -2.316970309	 -1.144729898	 -0.008928734
H	 -1.324231984	 -1.102372169	 -0.006767466
C	 -4.321515672	 0.075481379	 -0.004297580
H	 -4.692333914	 1.093138507	 0.003014001
H	 -4.679971234	 -0.450510223	 -0.885943059
H	 -4.683488188	 -0.464532931	 0.867369114
N	 2.404860616	 -0.300559805	 -1.245862548
H	 2.723751916	 -1.241117256	 -1.434799346
C	 3.225500041	 0.740551636	 -1.718433351
O	 4.255462902	 0.487488941	 -2.317386267
C	 2.702240081	 2.057456902	 -1.409757524
H	 3.257581814	 2.922281731	 -1.729133490
C	 1.539558536	 2.173901451	 -0.734102419
H	 1.108789170	 3.131070660	 -0.480389941
N	 0.819833614	 1.086478134	 -0.320180517
H	 -0.063931601	 1.184248935	 0.193181656
C	 1.223274536	 -0.197157828	 -0.559638800
O	 0.584868445	 -1.184248935	 -0.193181656
