20
0  1  0  1  0  1   8  12 -0.83871  0.27735  0.09130 -1.02476  0.01826 -0.60611  5.38811  5.37768  5.32702 -1.21882 -36.55211 67.06661 -20.01291 -11.72042
C	 -2.823166136	 0.079083363	 -0.001434231
O	 -2.151749103	 1.102372169	 0.006767466
O	 -2.316970309	 -1.144729898	 -0.008928734
H	 -1.324231984	 -1.102372169	 -0.006767466
C	 -4.321515672	 0.075481379	 -0.004297580
H	 -4.692333914	 1.093138507	 0.003014001
H	 -4.679971234	 -0.450510223	 -0.885943059
H	 -4.683488188	 -0.464532931	 0.867369114
N	 2.462908919	 0.979722269	 -0.006752519
H	 3.254168153	 0.350493805	 -0.010930936
C	 2.762461927	 2.354841220	 -0.005691127
O	 3.920819641	 2.731407727	 -0.009418138
C	 1.577903770	 3.191567469	 -0.000000000
H	 1.700291506	 4.260841756	 0.001083167
C	 0.355103094	 2.620041753	 0.003793713
H	 -0.556419261	 3.199017877	 0.008130481
N	 0.179787620	 1.263175027	 0.002398135
H	 -0.754214034	 0.836824918	 0.005100210
C	 1.227874772	 0.386073289	 -0.003258361
O	 1.083935159	 -0.836824918	 -0.005100210
