20
0  1  0  1  0  1   8  12  7.05860  9.29940  8.75609  6.51530  8.67024  7.36908 16.73184 16.71442 16.58326  3.59888 -75.70241 157.10646 -55.92255 -21.88261
C	 1.085175593	 0.079083363	 0.001434231
O	 0.413758560	 1.102372169	 -0.006767466
O	 0.578979765	 -1.144729898	 0.008928734
H	 -0.413758560	 -1.102372169	 0.006767466
C	 2.583525129	 0.075481379	 0.004297580
H	 2.954343371	 1.093138507	 -0.003014001
H	 2.941980690	 -0.450510223	 0.885943059
H	 2.945497645	 -0.464532931	 -0.867369114
N	 -3.294702177	 -0.300559805	 -1.842463533
H	 -3.617771895	 -1.241117256	 -2.024163101
C	 -4.114280210	 0.740551636	 -2.316872720
O	 -5.147970082	 0.487488941	 -2.909370265
C	 -3.585329123	 2.057456902	 -2.018054215
H	 -4.139587689	 2.922281731	 -2.339306281
C	 -2.418853865	 2.173901451	 -1.348970013
H	 -1.983747732	 3.131070660	 -1.102769039
N	 -1.700524522	 1.086478134	 -0.932630899
H	 -0.814057231	 1.184248935	 -0.423948857
C	 -2.109621940	 -0.197157828	 -1.162291845
O	 -1.473057698	 -1.184248935	 -0.792644524
