20
0  1  0  1  0  1   8  12 -15.47394 -14.96051 -14.61152 -15.12495 -14.67375 -14.96180 -12.94822 -12.95702 -13.02150 -15.08671 -17.02650 13.50979 -6.13127 -5.43873
C	 1.085175593	 0.079083363	 0.001434231
O	 0.413758560	 1.102372169	 -0.006767466
O	 0.578979765	 -1.144729898	 0.008928734
H	 -0.413758560	 -1.102372169	 0.006767466
C	 2.583525129	 0.075481379	 0.004297580
H	 2.954343371	 1.093138507	 -0.003014001
H	 2.941980690	 -0.450510223	 0.885943059
H	 2.945497645	 -0.464532931	 -0.867369114
N	 -3.948163585	 -0.300559805	 -2.190061641
H	 -4.271233303	 -1.241117256	 -2.371761209
C	 -4.767741618	 0.740551636	 -2.664470828
O	 -5.801431490	 0.487488941	 -3.256968373
C	 -4.238790531	 2.057456902	 -2.365652323
H	 -4.793049097	 2.922281731	 -2.686904389
C	 -3.072315273	 2.173901451	 -1.696568121
H	 -2.637209140	 3.131070660	 -1.450367147
N	 -2.353985930	 1.086478134	 -1.280229007
H	 -1.467518639	 1.184248935	 -0.771546965
C	 -2.763083348	 -0.197157828	 -1.509889953
O	 -2.126519106	 -1.184248935	 -1.140242632
