20
0  1  0  1  0  1   8  12 -17.31717 -16.51857 -16.21198 -17.01057 -16.28773 -16.73949 -13.39958 -13.41386 -13.49414 -16.77200 -25.76517 29.21698 -11.95976 -8.26405
C	 -2.823166136	 0.079083363	 -0.001434231
O	 -2.151749103	 1.102372169	 0.006767466
O	 -2.316970309	 -1.144729898	 -0.008928734
H	 -1.324231984	 -1.102372169	 -0.006767466
C	 -4.321515672	 0.075481379	 -0.004297580
H	 -4.692333914	 1.093138507	 0.003014001
H	 -4.679971234	 -0.450510223	 -0.885943059
H	 -4.683488188	 -0.464532931	 0.867369114
N	 2.228740000	 -0.300559805	 1.234166842
H	 2.551809717	 -1.241117256	 1.415866410
C	 3.048318033	 0.740551636	 1.708576030
O	 4.082007905	 0.487488941	 2.301073574
C	 2.519366946	 2.057456902	 1.409757524
H	 3.073625512	 2.922281731	 1.731009590
C	 1.352891688	 2.173901451	 0.740673323
H	 0.917785554	 3.131070660	 0.494472348
N	 0.634562344	 1.086478134	 0.324334208
H	 -0.251904946	 1.184248935	 -0.184347833
C	 1.043659762	 -0.197157828	 0.553995154
O	 0.407095520	 -1.184248935	 0.184347833
