20
0  1  0  1  0  1   8  12 -9.78301 -9.45153 -9.19957 -9.53105 -9.24975 -9.42728 -7.81274 -7.81925 -7.85455 -9.38378 -10.85268  8.83108 -3.80966 -3.55252
C	 1.085175593	 0.079083363	 0.001434231
O	 0.413758560	 1.102372169	 -0.006767466
O	 0.578979765	 -1.144729898	 0.008928734
H	 -0.413758560	 -1.102372169	 0.006767466
C	 2.583525129	 0.075481379	 0.004297580
H	 2.954343371	 1.093138507	 -0.003014001
H	 2.941980690	 -0.450510223	 0.885943059
H	 2.945497645	 -0.464532931	 -0.867369114
N	 -4.333631509	 -2.412752157	 0.006752519
H	 -4.184333293	 -3.412616987	 0.010930936
C	 -5.674295959	 -1.984613196	 0.005691127
O	 -6.579590978	 -2.799497150	 0.009418138
C	 -5.806643068	 -0.540392616	 -0.000000000
H	 -6.793855632	 -0.111746360	 -0.001083167
C	 -4.700286941	 0.232820975	 -0.003793713
H	 -4.745933796	 1.311710552	 -0.008130481
N	 -3.437548151	 -0.293784734	 -0.002398135
H	 -2.601317297	 0.301909371	 -0.005100210
C	 -3.201999339	 -1.640005701	 0.003258361
O	 -2.070968619	 -2.126799443	 0.005100210
