20
0  1  0  1  0  1   8  12 -1.68926 -0.55953 -0.76403 -1.89375 -0.83064 -1.46734  2.91751  2.90650  2.85413 -2.88551 -38.24275 73.85682 -26.62057 -11.87901
C	 1.085175593	 0.079083363	 0.001434231
O	 0.413758560	 1.102372169	 -0.006767466
O	 0.578979765	 -1.144729898	 0.008928734
H	 -0.413758560	 -1.102372169	 0.006767466
C	 2.583525129	 0.075481379	 0.004297580
H	 2.954343371	 1.093138507	 -0.003014001
H	 2.941980690	 -0.450510223	 0.885943059
H	 2.945497645	 -0.464532931	 -0.867369114
N	 -4.039437693	 1.674918486	 0.006752519
H	 -4.830696928	 1.045690023	 0.010930936
C	 -4.338990702	 3.050037438	 0.005691127
O	 -5.497348416	 3.426603945	 0.009418138
C	 -3.154432545	 3.886763686	 0.000000000
H	 -3.276820280	 4.956037974	 -0.001083167
C	 -1.931631869	 3.315237970	 -0.003793713
H	 -1.020109515	 3.894214095	 -0.008130481
N	 -1.756316396	 1.958371245	 -0.002398135
H	 -0.822314741	 1.532021135	 -0.005100210
C	 -2.804403546	 1.081269507	 0.003258361
O	 -2.660463933	 -0.141628700	 0.005100210
