20
0  1  0  1  0  1   8  12 26.83312 28.76848 28.17041 26.23505 28.08824 26.95180 33.57384 33.55266 33.39843 19.23523 -61.40346 159.00922 -58.60183 -19.76871
C	 1.085175593	 0.079083363	 0.001434231
O	 0.413758560	 1.102372169	 -0.006767466
O	 0.578979765	 -1.144729898	 0.008928734
H	 -0.413758560	 -1.102372169	 0.006767466
C	 2.583525129	 0.075481379	 0.004297580
H	 2.954343371	 1.093138507	 -0.003014001
H	 2.941980690	 -0.450510223	 0.885943059
H	 2.945497645	 -0.464532931	 -0.867369114
N	 -3.821764026	 1.588018959	 0.006752519
H	 -4.613023261	 0.958790496	 0.010930936
C	 -4.121317035	 2.963137911	 0.005691127
O	 -5.279674749	 3.339704418	 0.009418138
C	 -2.936758878	 3.799864159	 0.000000000
H	 -3.059146613	 4.869138447	 -0.001083167
C	 -1.713958202	 3.228338443	 -0.003793713
H	 -0.802435848	 3.807314568	 -0.008130481
N	 -1.538642729	 1.871471718	 -0.002398135
H	 -0.604641074	 1.445121608	 -0.005100210
C	 -2.586729879	 0.994369980	 0.003258361
O	 -2.442790266	 -0.228528227	 0.005100210
