20
0  1  0  1  0  1   8  12 -16.06718 -15.01940 -14.83691 -15.88469 -14.91678 -15.50939 -10.91109 -10.92694 -11.00526 -15.52369 -33.82810 46.63521 -17.67637 -10.65443
C	 1.085175593	 0.079083363	 0.001434231
O	 0.413758560	 1.102372169	 -0.006767466
O	 0.578979765	 -1.144729898	 0.008928734
H	 -0.413758560	 -1.102372169	 0.006767466
C	 2.583525129	 0.075481379	 0.004297580
H	 2.954343371	 1.093138507	 -0.003014001
H	 2.941980690	 -0.450510223	 0.885943059
H	 2.945497645	 -0.464532931	 -0.867369114
N	 -3.621432881	 -0.300559805	 -2.016262587
H	 -3.944502599	 -1.241117256	 -2.197962155
C	 -4.441010914	 0.740551636	 -2.490671774
O	 -5.474700786	 0.487488941	 -3.083169319
C	 -3.912059827	 2.057456902	 -2.191853269
H	 -4.466318393	 2.922281731	 -2.513105335
C	 -2.745584569	 2.173901451	 -1.522769067
H	 -2.310478436	 3.131070660	 -1.276568093
N	 -2.027255226	 1.086478134	 -1.106429953
H	 -1.140787935	 1.184248935	 -0.597747911
C	 -2.436352644	 -0.197157828	 -1.336090899
O	 -1.799788402	 -1.184248935	 -0.966443578
