20
0  1  0  1  0  1   8  12 -11.58425 -11.23697 -11.01922 -11.36650 -11.06171 -11.24944 -10.20965 -10.21767 -10.24498 -11.30305 -12.86158  9.89432 -4.43287 -3.90292
C	 1.085175593	 0.079083363	 0.001434231
O	 0.413758560	 1.102372169	 -0.006767466
O	 0.578979765	 -1.144729898	 0.008928734
H	 -0.413758560	 -1.102372169	 0.006767466
C	 2.583525129	 0.075481379	 0.004297580
H	 2.954343371	 1.093138507	 -0.003014001
H	 2.941980690	 -0.450510223	 0.885943059
H	 2.945497645	 -0.464532931	 -0.867369114
N	 -4.583621861	 1.892167304	 0.006752519
H	 -5.374881096	 1.262938841	 0.010930936
C	 -4.883174870	 3.267286256	 0.005691127
O	 -6.041532584	 3.643852763	 0.009418138
C	 -3.698616713	 4.104012504	 -0.000000000
H	 -3.821004448	 5.173286792	 -0.001083167
C	 -2.475816037	 3.532486788	 -0.003793713
H	 -1.564293683	 4.111462913	 -0.008130481
N	 -2.300500564	 2.175620063	 -0.002398135
H	 -1.366498909	 1.749269953	 -0.005100210
C	 -3.348587714	 1.298518325	 0.003258361
O	 -3.204648101	 0.075620118	 0.005100210
