20
0  1  0  1  0  1   8  12 11.20918 13.60553 13.02407 10.62771 12.93875 11.54065 21.05556 21.04112 20.89408  6.28678 -80.79228 174.08856 -63.57188 -23.43762
C	 -2.823166136	 0.079083363	 -0.001434231
O	 -2.151749103	 1.102372169	 0.006767466
O	 -2.316970309	 -1.144729898	 -0.008928734
H	 -1.324231984	 -1.102372169	 -0.006767466
C	 -4.321515672	 0.075481379	 -0.004297580
H	 -4.692333914	 1.093138507	 0.003014001
H	 -4.679971234	 -0.450510223	 -0.885943059
H	 -4.683488188	 -0.464532931	 0.867369114
N	 1.684064251	 -0.300559805	 1.234166842
H	 2.007133968	 -1.241117256	 1.415866410
C	 2.503642284	 0.740551636	 1.708576030
O	 3.537332156	 0.487488941	 2.301073574
C	 1.974691197	 2.057456902	 1.409757524
H	 2.528949763	 2.922281731	 1.731009590
C	 0.808215939	 2.173901451	 0.740673323
H	 0.373109805	 3.131070660	 0.494472348
N	 0.089886595	 1.086478134	 0.324334208
H	 -0.796580695	 1.184248935	 -0.184347833
C	 0.498984013	 -0.197157828	 0.553995154
O	 -0.137580229	 -1.184248935	 0.184347833
