20
0  1  0  1  0  1   8  12 -16.94003 -16.26776 -15.92658 -16.59886 -15.99742 -16.37759 -13.64135 -13.65329 -13.73024 -16.44382 -21.79367 21.58875 -9.22589 -7.01301
C	 -2.823166136	 0.079083363	 -0.001434231
O	 -2.151749103	 1.102372169	 0.006767466
O	 -2.316970309	 -1.144729898	 -0.008928734
H	 -1.324231984	 -1.102372169	 -0.006767466
C	 -4.321515672	 0.075481379	 -0.004297580
H	 -4.692333914	 1.093138507	 0.003014001
H	 -4.679971234	 -0.450510223	 -0.885943059
H	 -4.683488188	 -0.464532931	 0.867369114
N	 2.319519292	 -0.300559805	 1.234166842
H	 2.642589009	 -1.241117256	 1.415866410
C	 3.139097325	 0.740551636	 1.708576030
O	 4.172787197	 0.487488941	 2.301073574
C	 2.610146238	 2.057456902	 1.409757524
H	 3.164404804	 2.922281731	 1.731009590
C	 1.443670980	 2.173901451	 0.740673323
H	 1.008564846	 3.131070660	 0.494472348
N	 0.725341636	 1.086478134	 0.324334208
H	 -0.161125654	 1.184248935	 -0.184347833
C	 1.134439054	 -0.197157828	 0.553995154
O	 0.497874812	 -1.184248935	 0.184347833
