20
0  1  0  1  0  1   8  12  1.14992  2.37763  2.40285  1.17514  2.34551  1.64344  5.33125  5.32556  5.26525 -0.69327 -38.11182 83.02169 -32.98029 -12.62286
C	 -2.823166136	 0.079083363	 -0.001434231
O	 -2.151749103	 1.102372169	 0.006767466
O	 -2.316970309	 -1.144729898	 -0.008928734
H	 -1.324231984	 -1.102372169	 -0.006767466
C	 -4.321515672	 0.075481379	 -0.004297580
H	 -4.692333914	 1.093138507	 0.003014001
H	 -4.679971234	 -0.450510223	 -0.885943059
H	 -4.683488188	 -0.464532931	 0.867369114
N	 2.159206598	 -1.500307121	 -0.006752519
H	 2.009908381	 -2.500171951	 -0.010930936
C	 3.499871048	 -1.072168161	 -0.005691127
O	 4.405166066	 -1.887052114	 -0.009418138
C	 3.632218157	 0.372052420	 -0.000000000
H	 4.619430721	 0.800698676	 0.001083167
C	 2.525862030	 1.145266011	 0.003793713
H	 2.571508883	 2.224155588	 0.008130481
N	 1.263123239	 0.618660302	 0.002398135
H	 0.426892386	 1.214354407	 0.005100210
C	 1.027574428	 -0.727560665	 -0.003258361
O	 -0.103456292	 -1.214354407	 -0.005100210
