21
0  1  0  1  0  1   9  12 -8.72288 -7.26853 -7.40089 -8.85524 -7.48702 -8.30810 -0.83190 -0.84847 -0.91977 -8.69033 -49.31129 82.69980 -27.05479 -15.02405
C	 -2.928717844	 0.153289246	 -0.004517766
O	 -2.249785665	 1.185240432	 0.031401201
N	 -2.387025759	 -1.075509457	 -0.037732228
H	 -1.374139712	 -1.185240432	 -0.031401201
H	 -2.974406395	 -1.886186789	 -0.066292274
C	 -4.433296245	 0.231059639	 -0.009143433
H	 -4.755154771	 0.728233005	 0.902597743
H	 -4.913976454	 -0.740890833	 -0.078033370
H	 -4.743917122	 0.848832907	 -0.847644618
N	 1.866721777	 -0.026846304	 -1.276742036
H	 2.269449332	 -0.918554212	 -1.529737778
C	 2.581245754	 1.112419893	 -1.684273731
O	 3.624004656	 0.995696736	 -2.305558549
C	 1.942464692	 2.351055678	 -1.286468608
H	 2.410305289	 3.283555632	 -1.550650724
C	 0.781501870	 2.311333691	 -0.597514175
H	 0.266434601	 3.205554226	 -0.278403051
N	 0.168287765	 1.140408950	 -0.250562138
H	 -0.720437060	 1.148294406	 0.275598465
C	 0.685075284	 -0.085023534	 -0.576665079
O	 0.148908460	 -1.148294406	 -0.275598465
