21
0  1  0  1  0  1   9  12 -17.33826 -16.62550 -16.33772 -17.05048 -16.40188 -16.80521 -13.50821 -13.51417 -13.58137 -16.77836 -23.75001 24.53734 -10.00699 -7.55870
C	 1.116755155	 0.153289246	 0.004517766
O	 0.437822976	 1.185240432	 -0.031401201
N	 0.575063071	 -1.075509457	 0.037732228
H	 -0.437822976	 -1.185240432	 0.031401201
H	 1.162443706	 -1.886186789	 0.066292274
C	 2.621333556	 0.231059639	 0.009143433
H	 2.943192082	 0.728233005	 -0.902597743
H	 3.102013766	 -0.740890833	 0.078033370
H	 2.931954434	 0.848832907	 0.847644618
N	 -3.827666445	 -0.026846304	 2.182723381
H	 -4.230394000	 -0.918554212	 2.435719122
C	 -4.542190422	 1.112419893	 2.590255075
O	 -5.584949324	 0.995696736	 3.211539893
C	 -3.903409360	 2.351055678	 2.192449952
H	 -4.371249958	 3.283555632	 2.456632069
C	 -2.742446537	 2.311333691	 1.503495519
H	 -2.227379269	 3.205554226	 1.184384395
N	 -2.129232434	 1.140408950	 1.156543482
H	 -1.240507608	 1.148294406	 0.630382879
C	 -2.646019951	 -0.085023534	 1.482646423
O	 -2.109853128	 -1.148294406	 1.181579810
