21
0  1  0  1  0  1   9  12 -9.66481 -9.35637 -9.07485 -9.38329 -9.12250 -9.28316 -7.78349 -7.78519 -7.80863 -9.33636 -10.75769  7.88012 -2.99111 -3.46767
C	 1.116755155	 0.153289246	 0.004517766
O	 0.437822976	 1.185240432	 -0.031401201
N	 0.575063071	 -1.075509457	 0.037732228
H	 -0.437822976	 -1.185240432	 0.031401201
H	 1.162443706	 -1.886186789	 0.066292274
C	 2.621333556	 0.231059639	 0.009143433
H	 2.943192082	 0.728233005	 -0.902597743
H	 3.102013766	 -0.740890833	 0.078033370
H	 2.931954434	 0.848832907	 0.847644618
N	 -4.488659666	 -2.225769314	 0.029447999
H	 -4.454401747	 -3.235646097	 0.047184961
C	 -5.770652147	 -1.650416727	 0.025118811
O	 -6.763383963	 -2.358351000	 0.041787795
C	 -5.738629572	 -0.201675077	 -0.000000000
H	 -6.670154209	 0.337267122	 -0.005131875
C	 -4.549720441	 0.438874931	 -0.016170630
H	 -4.472351087	 1.516101081	 -0.034995336
N	 -3.354112854	 -0.222908136	 -0.010032856
H	 -2.463677738	 0.300290158	 -0.021338892
C	 -3.270193965	 -1.589465092	 0.013986816
O	 -2.206067744	 -2.202850981	 0.021338892
