21
0  1  0  1  0  1   9  12  8.59337 10.78934 10.16212  7.96615 10.07775  8.80383 18.91199 18.89898 18.77298  4.72838 -76.47068 159.49042 -56.00950 -22.28186
C	 1.116755155	 0.153289246	 0.004517766
O	 0.437822976	 1.185240432	 -0.031401201
N	 0.575063071	 -1.075509457	 0.037732228
H	 -0.437822976	 -1.185240432	 0.031401201
H	 1.162443706	 -1.886186789	 0.066292274
C	 2.621333556	 0.231059639	 0.009143433
H	 2.943192082	 0.728233005	 -0.902597743
H	 3.102013766	 -0.740890833	 0.078033370
H	 2.931954434	 0.848832907	 0.847644618
N	 -3.356854484	 -0.026846304	 -1.859923547
H	 -3.777319001	 -0.918554212	 -2.082197970
C	 -4.067049273	 1.112419893	 -2.274953616
O	 -5.126477159	 0.995696736	 -2.867366906
C	 -3.403149400	 2.351055678	 -1.920655549
H	 -3.865858123	 3.283555632	 -2.193726334
C	 -2.226015947	 2.311333691	 -1.259709469
H	 -1.692123973	 3.205554226	 -0.973203692
N	 -1.618939618	 1.140408950	 -0.902126496
H	 -0.718908756	 1.148294406	 -0.395548522
C	 -2.159746807	 -0.085023534	 -1.186626144
O	 -1.630932060	 -1.148294406	 -0.872825361
