21
0  1  0  1  0  1   9  12 -11.98259 -11.23367 -11.21146 -11.96038 -11.25847 -11.67362 -8.77335 -8.78041 -8.80260 -11.79999 -27.59677 39.02564 -15.12103 -8.10783
C	 1.116755155	 0.153289246	 0.004517766
O	 0.437822976	 1.185240432	 -0.031401201
N	 0.575063071	 -1.075509457	 0.037732228
H	 -0.437822976	 -1.185240432	 0.031401201
H	 1.162443706	 -1.886186789	 0.066292274
C	 2.621333556	 0.231059639	 0.009143433
H	 2.943192082	 0.728233005	 -0.902597743
H	 3.102013766	 -0.740890833	 0.078033370
H	 2.931954434	 0.848832907	 0.847644618
N	 -4.225578724	 2.043372950	 0.029447999
H	 -5.083028713	 1.508766331	 0.047184961
C	 -4.368305008	 3.441287300	 0.025118811
O	 -5.477759981	 3.947051135	 0.041787795
C	 -3.097646648	 4.137925761	 0.000000000
H	 -3.096671331	 5.214120861	 -0.005131875
C	 -1.948459504	 3.428575255	 -0.016170630
H	 -0.976869615	 3.900184504	 -0.034995336
N	 -1.923776658	 2.062257178	 -0.010032856
H	 -1.025456086	 1.552716895	 -0.021338892
C	 -3.065290253	 1.306302811	 0.013986816
O	 -3.064434904	 0.078049526	 0.021338892
