21
0  1  0  1  0  1   9  12 -16.42667 -15.72810 -15.41154 -16.11011 -15.47792 -15.87283 -12.60961 -12.61573 -12.68548 -15.93756 -23.11241 23.67064 -9.04451 -7.45128
C	 -2.928717844	 0.153289246	 -0.004517766
O	 -2.249785665	 1.185240432	 0.031401201
N	 -2.387025759	 -1.075509457	 -0.037732228
H	 -1.374139712	 -1.185240432	 -0.031401201
H	 -2.974406395	 -1.886186789	 -0.066292274
C	 -4.433296245	 0.231059639	 -0.009143433
H	 -4.755154771	 0.728233005	 0.902597743
H	 -4.913976454	 -0.740890833	 -0.078033370
H	 -4.743917122	 0.848832907	 -0.847644618
N	 2.277335057	 -0.026846304	 1.225736606
H	 2.697799574	 -0.918554212	 1.448011028
C	 2.987529846	 1.112419893	 1.640766674
O	 4.046957732	 0.995696736	 2.233179964
C	 2.323629973	 2.351055678	 1.286468608
H	 2.786338695	 3.283555632	 1.559539393
C	 1.146496521	 2.311333691	 0.625522528
H	 0.612604546	 3.205554226	 0.339016751
N	 0.539420190	 1.140408950	 0.267939554
H	 -0.360610671	 1.148294406	 -0.238638420
C	 1.080227381	 -0.085023534	 0.552439203
O	 0.551412633	 -1.148294406	 0.238638420
