21
0  1  0  1  0  1   9  12 -15.21360 -14.21128 -14.03548 -15.03779 -14.11330 -14.67842 -9.69760 -9.70999 -9.78263 -14.66539 -33.07400 44.28739 -15.38414 -10.49464
C	 -2.928717844	 0.153289246	 -0.004517766
O	 -2.249785665	 1.185240432	 0.031401201
N	 -2.387025759	 -1.075509457	 -0.037732228
H	 -1.374139712	 -1.185240432	 -0.031401201
H	 -2.974406395	 -1.886186789	 -0.066292274
C	 -4.433296245	 0.231059639	 -0.009143433
H	 -4.755154771	 0.728233005	 0.902597743
H	 -4.913976454	 -0.740890833	 -0.078033370
H	 -4.743917122	 0.848832907	 -0.847644618
N	 2.086598690	 -0.026846304	 1.225736606
H	 2.507063207	 -0.918554212	 1.448011028
C	 2.796793479	 1.112419893	 1.640766674
O	 3.856221365	 0.995696736	 2.233179964
C	 2.132893606	 2.351055678	 1.286468608
H	 2.595602328	 3.283555632	 1.559539393
C	 0.955760154	 2.311333691	 0.625522528
H	 0.421868179	 3.205554226	 0.339016751
N	 0.348683823	 1.140408950	 0.267939554
H	 -0.551347038	 1.148294406	 -0.238638420
C	 0.889491014	 -0.085023534	 0.552439203
O	 0.360676266	 -1.148294406	 0.238638420
