21
0  1  0  1  0  1   9  12 -10.22196 -8.57426 -8.79269 -10.44039 -8.87771 -9.81751 -2.53932 -2.55321 -2.63944 -11.11894 -58.68827 103.21022 -38.74265 -16.89824
C	 -1.232727003	 1.211638964	 -0.141624061
O	 -0.571276673	 2.242015733	 0.025616787
N	 -0.670580510	 0.003888780	 -0.314281473
H	 0.343846945	 -0.090560105	 -0.308326667
H	 -1.244213734	 -0.806323699	 -0.446682710
C	 -2.738244955	 1.266757664	 -0.155886572
H	 -3.077975339	 1.646605106	 0.804501592
H	 -3.202115034	 0.302865489	 -0.346211116
H	 -3.049987473	 1.975490493	 -0.918597367
N	 3.838329893	 1.112057745	 -0.124035867
H	 4.328359340	 0.236100565	 -0.241974336
C	 4.641955905	 2.254902684	 0.026445829
O	 5.857517932	 2.159280360	 0.011261053
C	 3.869363730	 3.470219167	 0.189589767
H	 4.391126720	 4.403412030	 0.312624890
C	 2.520203018	 3.408543638	 0.183913010
H	 1.899798967	 4.284904024	 0.301589907
N	 1.835120911	 2.236262130	 0.029347244
H	 0.802330433	 2.227201066	 0.028509926
C	 2.466010876	 1.031792632	 -0.132912792
O	 1.868822146	 -0.032123329	 -0.274720283
