21
0  1  0  1  0  1   9  12 -10.34287 -9.97396 -9.72282 -10.09173 -9.76298 -9.96380 -8.36394 -8.36440 -8.38989 -10.04313 -13.34328 12.20320 -4.57049 -4.33256
C	 -2.928717844	 0.153289246	 -0.004517766
O	 -2.249785665	 1.185240432	 0.031401201
N	 -2.387025759	 -1.075509457	 -0.037732228
H	 -1.374139712	 -1.185240432	 -0.031401201
H	 -2.974406395	 -1.886186789	 -0.066292274
C	 -4.433296245	 0.231059639	 -0.009143433
H	 -4.755154771	 0.728233005	 0.902597743
H	 -4.913976454	 -0.740890833	 -0.078033370
H	 -4.743917122	 0.848832907	 -0.847644618
N	 2.741390076	 -1.274488902	 -0.029447999
H	 2.707132158	 -2.284365685	 -0.047184961
C	 4.023382558	 -0.699136315	 -0.025118811
O	 5.016114373	 -1.407070589	 -0.041787795
C	 3.991359983	 0.749605334	 0.000000000
H	 4.922884620	 1.288547534	 0.005131875
C	 2.802450852	 1.390155342	 0.016170630
H	 2.725081498	 2.467381492	 0.034995336
N	 1.606843264	 0.728372275	 0.010032856
H	 0.716408149	 1.251570569	 0.021338892
C	 1.522924377	 -0.638184681	 -0.013986816
O	 0.458798155	 -1.251570569	 -0.021338892
