21
0  1  0  1  0  1   9  12 -9.92542 -8.44602 -8.60733 -10.08674 -8.68727 -9.52836 -2.22379 -2.23533 -2.31124 -10.11070 -50.30760 85.59223 -30.13315 -15.26218
C	 1.116755155	 0.153289246	 0.004517766
O	 0.437822976	 1.185240432	 -0.031401201
N	 0.575063071	 -1.075509457	 0.037732228
H	 -0.437822976	 -1.185240432	 0.031401201
H	 1.162443706	 -1.886186789	 0.066292274
C	 2.621333556	 0.231059639	 0.009143433
H	 2.943192082	 0.728233005	 -0.902597743
H	 3.102013766	 -0.740890833	 0.078033370
H	 2.931954434	 0.848832907	 0.847644618
N	 -3.492630371	 -0.026846304	 2.001527112
H	 -3.895357926	 -0.918554212	 2.254522853
C	 -4.207154348	 1.112419893	 2.409058806
O	 -5.249913250	 0.995696736	 3.030343624
C	 -3.568373286	 2.351055678	 2.011253683
H	 -4.036213884	 3.283555632	 2.275435800
C	 -2.407410463	 2.311333691	 1.322299250
H	 -1.892343195	 3.205554226	 1.003188126
N	 -1.794196360	 1.140408950	 0.975347213
H	 -0.905471534	 1.148294406	 0.449186610
C	 -2.310983877	 -0.085023534	 1.301450154
O	 -1.774817054	 -1.148294406	 1.000383541
