21
0  1  0  1  0  1   9  12  8.83119 10.97548 10.32074  8.17644 10.23092  8.99551 19.78128 19.76637 19.65339  6.20196 -75.51700 151.98584 -48.58292 -21.68396
C	 -2.928717844	 0.153289246	 -0.004517766
O	 -2.249785665	 1.185240432	 0.031401201
N	 -2.387025759	 -1.075509457	 -0.037732228
H	 -1.374139712	 -1.185240432	 -0.031401201
H	 -2.974406395	 -1.886186789	 -0.066292274
C	 -4.433296245	 0.231059639	 -0.009143433
H	 -4.755154771	 0.728233005	 0.902597743
H	 -4.913976454	 -0.740890833	 -0.078033370
H	 -4.743917122	 0.848832907	 -0.847644618
N	 1.705125956	 -0.026846304	 1.225736606
H	 2.125590473	 -0.918554212	 1.448011028
C	 2.415320745	 1.112419893	 1.640766674
O	 3.474748631	 0.995696736	 2.233179964
C	 1.751420872	 2.351055678	 1.286468608
H	 2.214129594	 3.283555632	 1.559539393
C	 0.574287420	 2.311333691	 0.625522528
H	 0.040395445	 3.205554226	 0.339016751
N	 -0.032788911	 1.140408950	 0.267939554
H	 -0.932819772	 1.148294406	 -0.238638420
C	 0.508018280	 -0.085023534	 0.552439203
O	 -0.020796468	 -1.148294406	 0.238638420
