21
0  1  0  1  0  1   9  12 -18.27549 -17.69084 -17.34273 -17.92739 -17.40655 -17.73448 -15.38549 -15.39651 -15.46009 -17.78789 -20.94614 17.28178 -7.95275 -6.17078
C	 -1.232727003	 1.211638964	 -0.141624061
O	 -0.571276673	 2.242015733	 0.025616787
N	 -0.670580510	 0.003888780	 -0.314281473
H	 0.343846945	 -0.090560105	 -0.308326667
H	 -1.244213734	 -0.806323699	 -0.446682710
C	 -2.738244955	 1.266757664	 -0.155886572
H	 -3.077975339	 1.646605106	 0.804501592
H	 -3.202115034	 0.302865489	 -0.346211116
H	 -3.049987473	 1.975490493	 -0.918597367
N	 4.381814075	 1.120236891	 -0.117192207
H	 4.871843522	 0.244279711	 -0.235130676
C	 5.185440087	 2.263081830	 0.033289489
O	 6.401002114	 2.167459506	 0.018104713
C	 4.412847912	 3.478398313	 0.196433427
H	 4.934610902	 4.411591176	 0.319468550
C	 3.063687200	 3.416722784	 0.190756670
H	 2.443283149	 4.293083170	 0.308433567
N	 2.378605093	 2.244441276	 0.036190904
H	 1.345814615	 2.235380212	 0.035353586
C	 3.009495058	 1.039971778	 -0.126069132
O	 2.412306328	 -0.023944183	 -0.267876623
