21
0  1  0  1  0  1   9  12 -10.11883 -9.73068 -9.44811 -9.83627 -9.50114 -9.70772 -7.74940 -7.75147 -7.78189 -9.69939 -13.08697 11.80206 -4.14616 -4.26832
C	 1.116755155	 0.153289246	 0.004517766
O	 0.437822976	 1.185240432	 -0.031401201
N	 0.575063071	 -1.075509457	 0.037732228
H	 -0.437822976	 -1.185240432	 0.031401201
H	 1.162443706	 -1.886186789	 0.066292274
C	 2.621333556	 0.231059639	 0.009143433
H	 2.943192082	 0.728233005	 -0.902597743
H	 3.102013766	 -0.740890833	 0.078033370
H	 2.931954434	 0.848832907	 0.847644618
N	 -4.377475250	 -2.180470247	 0.029447999
H	 -4.343217331	 -3.190347030	 0.047184961
C	 -5.659467731	 -1.605117660	 0.025118811
O	 -6.652199547	 -2.313051933	 0.041787795
C	 -5.627445156	 -0.156376010	 0.000000000
H	 -6.558969793	 0.382566189	 -0.005131875
C	 -4.438536025	 0.484173998	 -0.016170630
H	 -4.361166671	 1.561400148	 -0.034995336
N	 -3.242928438	 -0.177609069	 -0.010032856
H	 -2.352493322	 0.345589225	 -0.021338892
C	 -3.159009549	 -1.544166025	 0.013986816
O	 -2.094883328	 -2.157551914	 0.021338892
