21
0  1  0  1  0  1   9  12 -11.04792 -10.49255 -10.23276 -10.78813 -10.28721 -10.58538 -7.75006 -7.74987 -7.77020 -10.62658 -17.39679 19.67471 -6.59578 -6.30872
C	 -2.928717844	 0.153289246	 -0.004517766
O	 -2.249785665	 1.185240432	 0.031401201
N	 -2.387025759	 -1.075509457	 -0.037732228
H	 -1.374139712	 -1.185240432	 -0.031401201
H	 -2.974406395	 -1.886186789	 -0.066292274
C	 -4.433296245	 0.231059639	 -0.009143433
H	 -4.755154771	 0.728233005	 0.902597743
H	 -4.913976454	 -0.740890833	 -0.078033370
H	 -4.743917122	 0.848832907	 -0.847644618
N	 2.743443141	 1.227989740	 -0.029447999
H	 3.600893131	 0.693383121	 -0.047184961
C	 2.886169426	 2.625904090	 -0.025118811
O	 3.995624398	 3.131667924	 -0.041787795
C	 1.615511066	 3.322542551	 -0.000000000
H	 1.614535749	 4.398737651	 0.005131875
C	 0.466323922	 2.613192045	 0.016170630
H	 -0.505265967	 3.084801294	 0.034995336
N	 0.441641075	 1.246873967	 0.010032856
H	 -0.456679496	 0.737333684	 0.021338892
C	 1.583154672	 0.490919601	 -0.013986816
O	 1.582299322	 -0.737333684	 -0.021338892
