21
0  1  0  1  0  1   9  12 24.01107 25.93041 25.12481 23.20547 25.04217 23.94220 34.29722 34.29355 34.20318 20.20612 -65.05871 140.49661 -35.88140 -19.35037
C	 -2.928717844	 0.153289246	 -0.004517766
O	 -2.249785665	 1.185240432	 0.031401201
N	 -2.387025759	 -1.075509457	 -0.037732228
H	 -1.374139712	 -1.185240432	 -0.031401201
H	 -2.974406395	 -1.886186789	 -0.066292274
C	 -4.433296245	 0.231059639	 -0.009143433
H	 -4.755154771	 0.728233005	 0.902597743
H	 -4.913976454	 -0.740890833	 -0.078033370
H	 -4.743917122	 0.848832907	 -0.847644618
N	 2.118502983	 1.227989740	 -0.029447999
H	 2.975952973	 0.693383121	 -0.047184961
C	 2.261229268	 2.625904090	 -0.025118811
O	 3.370684240	 3.131667924	 -0.041787795
C	 0.990570908	 3.322542551	 -0.000000000
H	 0.989595591	 4.398737651	 0.005131875
C	 -0.158616236	 2.613192045	 0.016170630
H	 -1.130206125	 3.084801294	 0.034995336
N	 -0.183299083	 1.246873967	 0.010032856
H	 -1.081619654	 0.737333684	 0.021338892
C	 0.958214514	 0.490919601	 -0.013986816
O	 0.957359164	 -0.737333684	 -0.021338892
