21
0  1  0  1  0  1   9  12 -9.85513 -8.37489 -8.53564 -10.01588 -8.61338 -9.45777 -2.32288 -2.33296 -2.41254 -10.21351 -50.52875 86.53958 -30.94448 -15.27985
C	 1.116755155	 0.153289246	 0.004517766
O	 0.437822976	 1.185240432	 -0.031401201
N	 0.575063071	 -1.075509457	 0.037732228
H	 -0.437822976	 -1.185240432	 0.031401201
H	 1.162443706	 -1.886186789	 0.066292274
C	 2.621333556	 0.231059639	 0.009143433
H	 2.943192082	 0.728233005	 -0.902597743
H	 3.102013766	 -0.740890833	 0.078033370
H	 2.931954434	 0.848832907	 0.847644618
N	 -3.524700257	 -0.026846304	 -1.950521681
H	 -3.945164774	 -0.918554212	 -2.172796104
C	 -4.234895046	 1.112419893	 -2.365551750
O	 -5.294322932	 0.995696736	 -2.957965040
C	 -3.570995173	 2.351055678	 -2.011253683
H	 -4.033703896	 3.283555632	 -2.284324468
C	 -2.393861720	 2.311333691	 -1.350307603
H	 -1.859969746	 3.205554226	 -1.063801826
N	 -1.786785391	 1.140408950	 -0.992724630
H	 -0.886754529	 1.148294406	 -0.486146656
C	 -2.327592580	 -0.085023534	 -1.277224278
O	 -1.798777833	 -1.148294406	 -0.963423495
