21
0  1  0  1  0  1   9  12 -17.25120 -16.39937 -16.17000 -17.02183 -16.23909 -16.72090 -12.65612 -12.66370 -12.73314 -16.64832 -28.24697 33.60960 -13.04188 -8.96907
C	 1.116755155	 0.153289246	 0.004517766
O	 0.437822976	 1.185240432	 -0.031401201
N	 0.575063071	 -1.075509457	 0.037732228
H	 -0.437822976	 -1.185240432	 0.031401201
H	 1.162443706	 -1.886186789	 0.066292274
C	 2.621333556	 0.231059639	 0.009143433
H	 2.943192082	 0.728233005	 -0.902597743
H	 3.102013766	 -0.740890833	 0.078033370
H	 2.931954434	 0.848832907	 0.847644618
N	 -3.743907427	 -0.026846304	 2.137424314
H	 -4.146634982	 -0.918554212	 2.390420055
C	 -4.458431404	 1.112419893	 2.544956008
O	 -5.501190306	 0.995696736	 3.166240826
C	 -3.819650342	 2.351055678	 2.147150885
H	 -4.287490940	 3.283555632	 2.411333002
C	 -2.658687519	 2.311333691	 1.458196452
H	 -2.143620251	 3.205554226	 1.139085328
N	 -2.045473416	 1.140408950	 1.111244415
H	 -1.156748590	 1.148294406	 0.585083812
C	 -2.562260933	 -0.085023534	 1.437347356
O	 -2.026094110	 -1.148294406	 1.136280743
