21
0  1  0  1  0  1   9  12 -16.24191 -15.40418 -15.14153 -15.97926 -15.21369 -15.68754 -11.64229 -11.65139 -11.72547 -15.68992 -27.50446 32.39948 -11.75377 -8.83118
C	 -2.928717844	 0.153289246	 -0.004517766
O	 -2.249785665	 1.185240432	 0.031401201
N	 -2.387025759	 -1.075509457	 -0.037732228
H	 -1.374139712	 -1.185240432	 -0.031401201
H	 -2.974406395	 -1.886186789	 -0.066292274
C	 -4.433296245	 0.231059639	 -0.009143433
H	 -4.755154771	 0.728233005	 0.902597743
H	 -4.913976454	 -0.740890833	 -0.078033370
H	 -4.743917122	 0.848832907	 -0.847644618
N	 2.181966874	 -0.026846304	 1.225736606
H	 2.602431391	 -0.918554212	 1.448011028
C	 2.892161663	 1.112419893	 1.640766674
O	 3.951589549	 0.995696736	 2.233179964
C	 2.228261790	 2.351055678	 1.286468608
H	 2.690970512	 3.283555632	 1.559539393
C	 1.051128338	 2.311333691	 0.625522528
H	 0.517236363	 3.205554226	 0.339016751
N	 0.444052007	 1.140408950	 0.267939554
H	 -0.455978854	 1.148294406	 -0.238638420
C	 0.984859198	 -0.085023534	 0.552439203
O	 0.456044450	 -1.148294406	 0.238638420
