21
0  1  0  1  0  1   9  12 -13.91485 -13.44623 -13.25813 -13.72675 -13.29998 -13.55694 -11.99982 -12.00787 -12.03214 -13.52155 -17.90881 16.98469 -7.44866 -5.14877
C	 1.116755155	 0.153289246	 0.004517766
O	 0.437822976	 1.185240432	 -0.031401201
N	 0.575063071	 -1.075509457	 0.037732228
H	 -0.437822976	 -1.185240432	 0.031401201
H	 1.162443706	 -1.886186789	 0.066292274
C	 2.621333556	 0.231059639	 0.009143433
H	 2.943192082	 0.728233005	 -0.902597743
H	 3.102013766	 -0.740890833	 0.078033370
H	 2.931954434	 0.848832907	 0.847644618
N	 -4.452794890	 2.133971084	 0.029447999
H	 -5.310244879	 1.599364465	 0.047184961
C	 -4.595521174	 3.531885434	 0.025118811
O	 -5.704976147	 4.037649269	 0.041787795
C	 -3.324862814	 4.228523895	 0.000000000
H	 -3.323887497	 5.304718995	 -0.005131875
C	 -2.175675670	 3.519173389	 -0.016170630
H	 -1.204085781	 3.990782638	 -0.034995336
N	 -2.150992824	 2.152855312	 -0.010032856
H	 -1.252672252	 1.643315029	 -0.021338892
C	 -3.292506419	 1.396900945	 0.013986816
O	 -3.291651070	 0.168647660	 0.021338892
