21
0  1  0  1  0  1   9  12 -9.34889 -9.12264 -8.88276 -9.10901 -8.91137 -9.03123 -8.18059 -8.17947 -8.19274 -9.18617 -9.26951  5.24860 -2.32530 -2.83995
C	 -2.928717844	 0.153289246	 -0.004517766
O	 -2.249785665	 1.185240432	 0.031401201
N	 -2.387025759	 -1.075509457	 -0.037732228
H	 -1.374139712	 -1.185240432	 -0.031401201
H	 -2.974406395	 -1.886186789	 -0.066292274
C	 -4.433296245	 0.231059639	 -0.009143433
H	 -4.755154771	 0.728233005	 0.902597743
H	 -4.913976454	 -0.740890833	 -0.078033370
H	 -4.743917122	 0.848832907	 -0.847644618
N	 2.981346660	 -1.274488902	 -0.029447999
H	 2.947088742	 -2.284365685	 -0.047184961
C	 4.263339142	 -0.699136315	 -0.025118811
O	 5.256070957	 -1.407070589	 -0.041787795
C	 4.231316567	 0.749605334	 0.000000000
H	 5.162841204	 1.288547534	 0.005131875
C	 3.042407436	 1.390155342	 0.016170630
H	 2.965038082	 2.467381492	 0.034995336
N	 1.846799848	 0.728372275	 0.010032856
H	 0.956364733	 1.251570569	 0.021338892
C	 1.762880961	 -0.638184681	 -0.013986816
O	 0.698754739	 -1.251570569	 -0.021338892
