21
0  1  0  1  0  1   9  12 -8.75665 -7.30638 -7.43585 -8.88612 -7.52196 -8.34050 -0.91665 -0.93361 -1.00445 -8.75176 -49.22886 82.38100 -26.93816 -14.96574
C	 -2.928717844	 0.153289246	 -0.004517766
O	 -2.249785665	 1.185240432	 0.031401201
N	 -2.387025759	 -1.075509457	 -0.037732228
H	 -1.374139712	 -1.185240432	 -0.031401201
H	 -2.974406395	 -1.886186789	 -0.066292274
C	 -4.433296245	 0.231059639	 -0.009143433
H	 -4.755154771	 0.728233005	 0.902597743
H	 -4.913976454	 -0.740890833	 -0.078033370
H	 -4.743917122	 0.848832907	 -0.847644618
N	 1.895862323	 -0.026846304	 1.225736606
H	 2.316326840	 -0.918554212	 1.448011028
C	 2.606057112	 1.112419893	 1.640766674
O	 3.665484998	 0.995696736	 2.233179964
C	 1.942157239	 2.351055678	 1.286468608
H	 2.404865961	 3.283555632	 1.559539393
C	 0.765023787	 2.311333691	 0.625522528
H	 0.231131812	 3.205554226	 0.339016751
N	 0.157947456	 1.140408950	 0.267939554
H	 -0.742083405	 1.148294406	 -0.238638420
C	 0.698754647	 -0.085023534	 0.552439203
O	 0.169939899	 -1.148294406	 0.238638420
