21
0  1  0  1  0  1   9  12  8.97359 11.12704 10.46641  8.31296 10.37696  9.13518 19.99594 19.98154 19.86653  6.37094 -75.69151 152.80289 -48.95807 -21.78238
C	 -2.928717844	 0.153289246	 -0.004517766
O	 -2.249785665	 1.185240432	 0.031401201
N	 -2.387025759	 -1.075509457	 -0.037732228
H	 -1.374139712	 -1.185240432	 -0.031401201
H	 -2.974406395	 -1.886186789	 -0.066292274
C	 -4.433296245	 0.231059639	 -0.009143433
H	 -4.755154771	 0.728233005	 0.902597743
H	 -4.913976454	 -0.740890833	 -0.078033370
H	 -4.743917122	 0.848832907	 -0.847644618
N	 1.675946978	 -0.026846304	 -1.276742036
H	 2.078674533	 -0.918554212	 -1.529737778
C	 2.390470955	 1.112419893	 -1.684273731
O	 3.433229857	 0.995696736	 -2.305558549
C	 1.751689893	 2.351055678	 -1.286468608
H	 2.219530490	 3.283555632	 -1.550650724
C	 0.590727071	 2.311333691	 -0.597514175
H	 0.075659802	 3.205554226	 -0.278403051
N	 -0.022487034	 1.140408950	 -0.250562138
H	 -0.911211859	 1.148294406	 0.275598465
C	 0.494300485	 -0.085023534	 -0.576665079
O	 -0.041866339	 -1.148294406	 -0.275598465
