21
0  1  0  1  0  1   9  12 -10.14702 -9.66151 -9.39473 -9.88023 -9.45346 -9.71423 -7.18335 -7.18672 -7.22000 -9.63648 -16.18188 17.63518 -5.81665 -5.27312
C	 1.116755155	 0.153289246	 0.004517766
O	 0.437822976	 1.185240432	 -0.031401201
N	 0.575063071	 -1.075509457	 0.037732228
H	 -0.437822976	 -1.185240432	 0.031401201
H	 1.162443706	 -1.886186789	 0.066292274
C	 2.621333556	 0.231059639	 0.009143433
H	 2.943192082	 0.728233005	 -0.902597743
H	 3.102013766	 -0.740890833	 0.078033370
H	 2.931954434	 0.848832907	 0.847644618
N	 -4.266290834	 -2.135171180	 0.029447999
H	 -4.232032915	 -3.145047963	 0.047184961
C	 -5.548283315	 -1.559818593	 0.025118811
O	 -6.541015131	 -2.267752866	 0.041787795
C	 -5.516260740	 -0.111076943	 0.000000000
H	 -6.447785377	 0.427865256	 -0.005131875
C	 -4.327351609	 0.529473065	 -0.016170630
H	 -4.249982255	 1.606699215	 -0.034995336
N	 -3.131744022	 -0.132310002	 -0.010032856
H	 -2.241308906	 0.390888292	 -0.021338892
C	 -3.047825133	 -1.498866958	 0.013986816
O	 -1.983698912	 -2.112252847	 0.021338892
