21
0  1  0  1  0  1   9  12 -16.39663 -15.37993 -15.24515 -16.26185 -15.31741 -15.89214 -11.02874 -11.03718 -11.10528 -15.89603 -34.14738 46.46184 -17.54516 -10.66533
C	 1.116755155	 0.153289246	 0.004517766
O	 0.437822976	 1.185240432	 -0.031401201
N	 0.575063071	 -1.075509457	 0.037732228
H	 -0.437822976	 -1.185240432	 0.031401201
H	 1.162443706	 -1.886186789	 0.066292274
C	 2.621333556	 0.231059639	 0.009143433
H	 2.943192082	 0.728233005	 -0.902597743
H	 3.102013766	 -0.740890833	 0.078033370
H	 2.931954434	 0.848832907	 0.847644618
N	 -3.692546029	 -0.026846304	 -2.041119816
H	 -4.113010546	 -0.918554212	 -2.263394239
C	 -4.402740818	 1.112419893	 -2.456149885
O	 -5.462168704	 0.995696736	 -3.048563175
C	 -3.738840945	 2.351055678	 -2.101851818
H	 -4.201549668	 3.283555632	 -2.374922603
C	 -2.561707492	 2.311333691	 -1.440905738
H	 -2.027815518	 3.205554226	 -1.154399961
N	 -1.954631163	 1.140408950	 -1.083322765
H	 -1.054600301	 1.148294406	 -0.576744791
C	 -2.495438352	 -0.085023534	 -1.367822413
O	 -1.966623605	 -1.148294406	 -1.054021630
