21
0  1  0  1  0  1   9  12 -1.02911 -0.03644 -0.03170 -1.02438 -0.10044 -0.65075  4.02166  4.01556  3.97725 -1.39477 -33.57155 63.70129 -20.75210 -10.77241
C	 -2.928717844	 0.153289246	 -0.004517766
O	 -2.249785665	 1.185240432	 0.031401201
N	 -2.387025759	 -1.075509457	 -0.037732228
H	 -1.374139712	 -1.185240432	 -0.031401201
H	 -2.974406395	 -1.886186789	 -0.066292274
C	 -4.433296245	 0.231059639	 -0.009143433
H	 -4.755154771	 0.728233005	 0.902597743
H	 -4.913976454	 -0.740890833	 -0.078033370
H	 -4.743917122	 0.848832907	 -0.847644618
N	 2.261476908	 -1.274488902	 -0.029447999
H	 2.227218990	 -2.284365685	 -0.047184961
C	 3.543469390	 -0.699136315	 -0.025118811
O	 4.536201205	 -1.407070589	 -0.041787795
C	 3.511446815	 0.749605334	 -0.000000000
H	 4.442971452	 1.288547534	 0.005131875
C	 2.322537684	 1.390155342	 0.016170630
H	 2.245168330	 2.467381492	 0.034995336
N	 1.126930096	 0.728372275	 0.010032856
H	 0.236494981	 1.251570569	 0.021338892
C	 1.043011209	 -0.638184681	 -0.013986816
O	 -0.021115013	 -1.251570569	 -0.021338892
