21
0  1  0  1  0  1   9  12 -10.89875 -10.54625 -10.22232 -10.57482 -10.26940 -10.45143 -8.89548 -8.89439 -8.90734 -10.59148 -11.53519  8.80453 -3.68470 -4.17612
C	 -2.928717844	 0.153289246	 -0.004517766
O	 -2.249785665	 1.185240432	 0.031401201
N	 -2.387025759	 -1.075509457	 -0.037732228
H	 -1.374139712	 -1.185240432	 -0.031401201
H	 -2.974406395	 -1.886186789	 -0.066292274
C	 -4.433296245	 0.231059639	 -0.009143433
H	 -4.755154771	 0.728233005	 0.902597743
H	 -4.913976454	 -0.740890833	 -0.078033370
H	 -4.743917122	 0.848832907	 -0.847644618
N	 2.993419205	 1.227989740	 -0.029447999
H	 3.850869195	 0.693383121	 -0.047184961
C	 3.136145490	 2.625904090	 -0.025118811
O	 4.245600462	 3.131667924	 -0.041787795
C	 1.865487130	 3.322542551	 0.000000000
H	 1.864511813	 4.398737651	 0.005131875
C	 0.716299986	 2.613192045	 0.016170630
H	 -0.255289903	 3.084801294	 0.034995336
N	 0.691617139	 1.246873967	 0.010032856
H	 -0.206703432	 0.737333684	 0.021338892
C	 1.833130736	 0.490919601	 -0.013986816
O	 1.832275386	 -0.737333684	 -0.021338892
