21
0  1  0  1  0  1   9  12 16.57052 18.19740 17.89159 16.26470 17.80104 16.86725 24.90633 24.89493 24.78686 13.53739 -57.45538 125.15487 -37.51125 -16.65085
C	 1.116755155	 0.153289246	 0.004517766
O	 0.437822976	 1.185240432	 -0.031401201
N	 0.575063071	 -1.075509457	 0.037732228
H	 -0.437822976	 -1.185240432	 0.031401201
H	 1.162443706	 -1.886186789	 0.066292274
C	 2.621333556	 0.231059639	 0.009143433
H	 2.943192082	 0.728233005	 -0.902597743
H	 3.102013766	 -0.740890833	 0.078033370
H	 2.931954434	 0.848832907	 0.847644618
N	 -3.710368752	 -1.908675844	 0.029447999
H	 -3.676110834	 -2.918552627	 0.047184961
C	 -4.992361234	 -1.333323257	 0.025118811
O	 -5.985093050	 -2.041257530	 0.041787795
C	 -4.960338659	 0.115418393	 0.000000000
H	 -5.891863296	 0.654360592	 -0.005131875
C	 -3.771429528	 0.755968401	 -0.016170630
H	 -3.694060174	 1.833194551	 -0.034995336
N	 -2.575821941	 0.094185334	 -0.010032856
H	 -1.685386824	 0.617383628	 -0.021338892
C	 -2.491903051	 -1.272371622	 0.013986816
O	 -1.427776830	 -1.885757511	 0.021338892
