21
0  1  0  1  0  1   9  12 -16.06817 -15.48850 -15.14307 -15.72274 -15.20357 -15.52902 -12.91769 -12.92137 -12.98136 -15.66566 -19.62573 17.27365 -7.00980 -6.30378
C	 -2.928717844	 0.153289246	 -0.004517766
O	 -2.249785665	 1.185240432	 0.031401201
N	 -2.387025759	 -1.075509457	 -0.037732228
H	 -1.374139712	 -1.185240432	 -0.031401201
H	 -2.974406395	 -1.886186789	 -0.066292274
C	 -4.433296245	 0.231059639	 -0.009143433
H	 -4.755154771	 0.728233005	 0.902597743
H	 -4.913976454	 -0.740890833	 -0.078033370
H	 -4.743917122	 0.848832907	 -0.847644618
N	 2.372703240	 -0.026846304	 1.225736606
H	 2.793167757	 -0.918554212	 1.448011028
C	 3.082898029	 1.112419893	 1.640766674
O	 4.142325915	 0.995696736	 2.233179964
C	 2.418998156	 2.351055678	 1.286468608
H	 2.881706878	 3.283555632	 1.559539393
C	 1.241864704	 2.311333691	 0.625522528
H	 0.707972729	 3.205554226	 0.339016751
N	 0.634788373	 1.140408950	 0.267939554
H	 -0.265242488	 1.148294406	 -0.238638420
C	 1.175595564	 -0.085023534	 0.552439203
O	 0.646780816	 -1.148294406	 0.238638420
