21
0  1  0  1  0  1   9  12 -16.42707 -15.72700 -15.41083 -16.11090 -15.47732 -15.87331 -12.58950 -12.59554 -12.66592 -15.93081 -23.11498 23.69215 -9.03572 -7.47225
C	 -2.928717844	 0.153289246	 -0.004517766
O	 -2.249785665	 1.185240432	 0.031401201
N	 -2.387025759	 -1.075509457	 -0.037732228
H	 -1.374139712	 -1.185240432	 -0.031401201
H	 -2.974406395	 -1.886186789	 -0.066292274
C	 -4.433296245	 0.231059639	 -0.009143433
H	 -4.755154771	 0.728233005	 0.902597743
H	 -4.913976454	 -0.740890833	 -0.078033370
H	 -4.743917122	 0.848832907	 -0.847644618
N	 2.248271374	 -0.026846304	 -1.276742036
H	 2.650998929	 -0.918554212	 -1.529737778
C	 2.962795351	 1.112419893	 -1.684273731
O	 4.005554253	 0.995696736	 -2.305558549
C	 2.324014289	 2.351055678	 -1.286468608
H	 2.791854886	 3.283555632	 -1.550650724
C	 1.163051467	 2.311333691	 -0.597514175
H	 0.647984198	 3.205554226	 -0.278403051
N	 0.549837362	 1.140408950	 -0.250562138
H	 -0.338887463	 1.148294406	 0.275598465
C	 1.066624881	 -0.085023534	 -0.576665079
O	 0.530458057	 -1.148294406	 -0.275598465
