21
0  1  0  1  0  1   9  12 -9.98500 -9.69521 -9.44410 -9.73389 -9.47809 -9.63476 -8.45485 -8.45428 -8.47510 -9.75823 -11.03287  8.01202 -3.23794 -3.49944
C	 -2.928717844	 0.153289246	 -0.004517766
O	 -2.249785665	 1.185240432	 0.031401201
N	 -2.387025759	 -1.075509457	 -0.037732228
H	 -1.374139712	 -1.185240432	 -0.031401201
H	 -2.974406395	 -1.886186789	 -0.066292274
C	 -4.433296245	 0.231059639	 -0.009143433
H	 -4.755154771	 0.728233005	 0.902597743
H	 -4.913976454	 -0.740890833	 -0.078033370
H	 -4.743917122	 0.848832907	 -0.847644618
N	 2.861368368	 -1.274488902	 -0.029447999
H	 2.827110450	 -2.284365685	 -0.047184961
C	 4.143360850	 -0.699136315	 -0.025118811
O	 5.136092665	 -1.407070589	 -0.041787795
C	 4.111338275	 0.749605334	 0.000000000
H	 5.042862912	 1.288547534	 0.005131875
C	 2.922429144	 1.390155342	 0.016170630
H	 2.845059790	 2.467381492	 0.034995336
N	 1.726821556	 0.728372275	 0.010032856
H	 0.836386441	 1.251570569	 0.021338892
C	 1.642902669	 -0.638184681	 -0.013986816
O	 0.578776447	 -1.251570569	 -0.021338892
