21
0  1  0  1  0  1   9  12 10.20877 12.61940 11.94525  9.53462 11.85880 10.45122 20.26625 20.25449 20.10299  4.65573 -86.45318 184.57617 -69.05050 -24.41676
C	 -1.232727003	 1.211638964	 -0.141624061
O	 -0.571276673	 2.242015733	 0.025616787
N	 -0.670580510	 0.003888780	 -0.314281473
H	 0.343846945	 -0.090560105	 -0.308326667
H	 -1.244213734	 -0.806323699	 -0.446682710
C	 -2.738244955	 1.266757664	 -0.155886572
H	 -3.077975339	 1.646605106	 0.804501592
H	 -3.202115034	 0.302865489	 -0.346211116
H	 -3.049987473	 1.975490493	 -0.918597367
N	 3.657168499	 1.109331363	 -0.126317087
H	 4.147197946	 0.233374183	 -0.244255556
C	 4.460794511	 2.252176302	 0.024164609
O	 5.676356538	 2.156553978	 0.008979833
C	 3.688202336	 3.467492785	 0.187308547
H	 4.209965326	 4.400685648	 0.310343670
C	 2.339041624	 3.405817256	 0.181631790
H	 1.718637573	 4.282177642	 0.299308687
N	 1.653959517	 2.233535748	 0.027066024
H	 0.621169039	 2.224474684	 0.026228706
C	 2.284849482	 1.029066250	 -0.135194012
O	 1.687660752	 -0.034849711	 -0.277001503
