21
0  1  0  1  0  1   9  12 -15.37593 -14.89716 -14.54179 -15.02055 -14.59657 -14.86164 -12.79134 -12.79304 -12.84034 -15.05867 -16.83407 12.59412 -5.47206 -5.34666
C	 -2.928717844	 0.153289246	 -0.004517766
O	 -2.249785665	 1.185240432	 0.031401201
N	 -2.387025759	 -1.075509457	 -0.037732228
H	 -1.374139712	 -1.185240432	 -0.031401201
H	 -2.974406395	 -1.886186789	 -0.066292274
C	 -4.433296245	 0.231059639	 -0.009143433
H	 -4.755154771	 0.728233005	 0.902597743
H	 -4.913976454	 -0.740890833	 -0.078033370
H	 -4.743917122	 0.848832907	 -0.847644618
N	 2.468071424	 -0.026846304	 1.225736606
H	 2.888535941	 -0.918554212	 1.448011028
C	 3.178266213	 1.112419893	 1.640766674
O	 4.237694099	 0.995696736	 2.233179964
C	 2.514366340	 2.351055678	 1.286468608
H	 2.977075062	 3.283555632	 1.559539393
C	 1.337232888	 2.311333691	 0.625522528
H	 0.803340913	 3.205554226	 0.339016751
N	 0.730156557	 1.140408950	 0.267939554
H	 -0.169874304	 1.148294406	 -0.238638420
C	 1.270963748	 -0.085023534	 0.552439203
O	 0.742149000	 -1.148294406	 0.238638420
