21
0  1  0  1  0  1   9  12 24.91447 26.63681 26.30904 24.58670 26.22189 25.22447 32.54843 32.53686 32.41341 19.75234 -55.71696 140.91960 -47.45661 -17.99369
C	 -2.928717844	 0.153289246	 -0.004517766
O	 -2.249785665	 1.185240432	 0.031401201
N	 -2.387025759	 -1.075509457	 -0.037732228
H	 -1.374139712	 -1.185240432	 -0.031401201
H	 -2.974406395	 -1.886186789	 -0.066292274
C	 -4.433296245	 0.231059639	 -0.009143433
H	 -4.755154771	 0.728233005	 0.902597743
H	 -4.913976454	 -0.740890833	 -0.078033370
H	 -4.743917122	 0.848832907	 -0.847644618
N	 2.021520324	 -1.274488902	 -0.029447999
H	 1.987262406	 -2.284365685	 -0.047184961
C	 3.303512806	 -0.699136315	 -0.025118811
O	 4.296244621	 -1.407070589	 -0.041787795
C	 3.271490231	 0.749605334	 -0.000000000
H	 4.203014868	 1.288547534	 0.005131875
C	 2.082581100	 1.390155342	 0.016170630
H	 2.005211746	 2.467381492	 0.034995336
N	 0.886973512	 0.728372275	 0.010032856
H	 -0.003461603	 1.251570569	 0.021338892
C	 0.803054625	 -0.638184681	 -0.013986816
O	 -0.261071597	 -1.251570569	 -0.021338892
