21
0  1  0  1  0  1   9  12 -16.23021 -15.73822 -15.40625 -15.89823 -15.46027 -15.73404 -13.68190 -13.68598 -13.73476 -15.83939 -17.44401 13.14799 -6.14476 -5.39861
C	 1.116755155	 0.153289246	 0.004517766
O	 0.437822976	 1.185240432	 -0.031401201
N	 0.575063071	 -1.075509457	 0.037732228
H	 -0.437822976	 -1.185240432	 0.031401201
H	 1.162443706	 -1.886186789	 0.066292274
C	 2.621333556	 0.231059639	 0.009143433
H	 2.943192082	 0.728233005	 -0.902597743
H	 3.102013766	 -0.740890833	 0.078033370
H	 2.931954434	 0.848832907	 0.847644618
N	 -4.028237575	 -0.026846304	 -2.222316084
H	 -4.448702092	 -0.918554212	 -2.444590507
C	 -4.738432364	 1.112419893	 -2.637346153
O	 -5.797860250	 0.995696736	 -3.229759443
C	 -4.074532491	 2.351055678	 -2.283048086
H	 -4.537241214	 3.283555632	 -2.556118871
C	 -2.897399038	 2.311333691	 -1.622102006
H	 -2.363507064	 3.205554226	 -1.335596229
N	 -2.290322709	 1.140408950	 -1.264519033
H	 -1.390291847	 1.148294406	 -0.757941059
C	 -2.831129898	 -0.085023534	 -1.549018681
O	 -2.302315151	 -1.148294406	 -1.235217898
