21
0  1  0  1  0  1   9  12 -19.08349 -18.11193 -17.90751 -18.87907 -17.98541 -18.53289 -14.23841 -14.25414 -14.32723 -18.48945 -33.84052 42.45841 -17.04188 -10.06546
C	 -1.232727003	 1.211638964	 -0.141624061
O	 -0.571276673	 2.242015733	 0.025616787
N	 -0.670580510	 0.003888780	 -0.314281473
H	 0.343846945	 -0.090560105	 -0.308326667
H	 -1.244213734	 -0.806323699	 -0.446682710
C	 -2.738244955	 1.266757664	 -0.155886572
H	 -3.077975339	 1.646605106	 0.804501592
H	 -3.202115034	 0.302865489	 -0.346211116
H	 -3.049987473	 1.975490493	 -0.918597367
N	 4.110071984	 1.116147318	 -0.120614037
H	 4.600101431	 0.240190138	 -0.238552506
C	 4.913697996	 2.258992257	 0.029867659
O	 6.129260023	 2.163369933	 0.014682883
C	 4.141105821	 3.474308740	 0.193011597
H	 4.662868811	 4.407501603	 0.316046720
C	 2.791945109	 3.412633211	 0.187334840
H	 2.171541058	 4.288993597	 0.305011737
N	 2.106863002	 2.240351703	 0.032769074
H	 1.074072524	 2.231290639	 0.031931756
C	 2.737752967	 1.035882205	 -0.129490962
O	 2.140564237	 -0.028033756	 -0.271298453
