21
0  1  0  1  0  1   9  12 -13.48673 -13.11330 -12.88982 -13.26325 -12.92733 -13.13161 -12.05716 -12.06405 -12.08794 -13.13643 -14.80749 11.15171 -5.34006 -4.14059
C	 1.116755155	 0.153289246	 0.004517766
O	 0.437822976	 1.185240432	 -0.031401201
N	 0.575063071	 -1.075509457	 0.037732228
H	 -0.437822976	 -1.185240432	 0.031401201
H	 1.162443706	 -1.886186789	 0.066292274
C	 2.621333556	 0.231059639	 0.009143433
H	 2.943192082	 0.728233005	 -0.902597743
H	 3.102013766	 -0.740890833	 0.078033370
H	 2.931954434	 0.848832907	 0.847644618
N	 -4.566402973	 2.179270151	 0.029447999
H	 -5.423852962	 1.644663532	 0.047184961
C	 -4.709129257	 3.577184501	 0.025118811
O	 -5.818584230	 4.082948336	 0.041787795
C	 -3.438470897	 4.273822962	 -0.000000000
H	 -3.437495580	 5.350018062	 -0.005131875
C	 -2.289283753	 3.564472456	 -0.016170630
H	 -1.317693864	 4.036081705	 -0.034995336
N	 -2.264600907	 2.198154379	 -0.010032856
H	 -1.366280335	 1.688614096	 -0.021338892
C	 -3.406114502	 1.442200012	 0.013986816
O	 -3.405259153	 0.213946727	 0.021338892
