21
0  1  0  1  0  1   9  12 -8.99444 -8.74968 -8.47979 -8.72455 -8.52267 -8.64572 -7.51110 -7.51309 -7.52810 -8.74358 -8.97973  5.25198 -2.18475 -2.83109
C	 1.116755155	 0.153289246	 0.004517766
O	 0.437822976	 1.185240432	 -0.031401201
N	 0.575063071	 -1.075509457	 0.037732228
H	 -0.437822976	 -1.185240432	 0.031401201
H	 1.162443706	 -1.886186789	 0.066292274
C	 2.621333556	 0.231059639	 0.009143433
H	 2.943192082	 0.728233005	 -0.902597743
H	 3.102013766	 -0.740890833	 0.078033370
H	 2.931954434	 0.848832907	 0.847644618
N	 -4.599844083	 -2.271068381	 0.029447999
H	 -4.565586164	 -3.280945164	 0.047184961
C	 -5.881836564	 -1.695715794	 0.025118811
O	 -6.874568380	 -2.403650067	 0.041787795
C	 -5.849813989	 -0.246974144	 -0.000000000
H	 -6.781338626	 0.291968055	 -0.005131875
C	 -4.660904858	 0.393575864	 -0.016170630
H	 -4.583535504	 1.470802014	 -0.034995336
N	 -3.465297271	 -0.268207203	 -0.010032856
H	 -2.574862155	 0.254991091	 -0.021338892
C	 -3.381378382	 -1.634764159	 0.013986816
O	 -2.317252161	 -2.248150048	 0.021338892
