21
0  1  0  1  0  1   9  12 -15.20955 -14.20522 -14.03057 -15.03490 -14.10882 -14.67494 -9.66090 -9.67321 -9.74604 -14.64569 -33.10240 44.39239 -15.40655 -10.52913
C	 -2.928717844	 0.153289246	 -0.004517766
O	 -2.249785665	 1.185240432	 0.031401201
N	 -2.387025759	 -1.075509457	 -0.037732228
H	 -1.374139712	 -1.185240432	 -0.031401201
H	 -2.974406395	 -1.886186789	 -0.066292274
C	 -4.433296245	 0.231059639	 -0.009143433
H	 -4.755154771	 0.728233005	 0.902597743
H	 -4.913976454	 -0.740890833	 -0.078033370
H	 -4.743917122	 0.848832907	 -0.847644618
N	 2.057496575	 -0.026846304	 -1.276742036
H	 2.460224130	 -0.918554212	 -1.529737778
C	 2.772020552	 1.112419893	 -1.684273731
O	 3.814779454	 0.995696736	 -2.305558549
C	 2.133239490	 2.351055678	 -1.286468608
H	 2.601080087	 3.283555632	 -1.550650724
C	 0.972276668	 2.311333691	 -0.597514175
H	 0.457209399	 3.205554226	 -0.278403051
N	 0.359062563	 1.140408950	 -0.250562138
H	 -0.529662262	 1.148294406	 0.275598465
C	 0.875850082	 -0.085023534	 -0.576665079
O	 0.339683258	 -1.148294406	 -0.275598465
