21
0  1  0  1  0  1   9  12 -16.09615 -15.60227 -15.26713 -15.76100 -15.32180 -15.59660 -13.48514 -13.48881 -13.53831 -15.70089 -17.30622 13.03677 -6.01797 -5.41347
C	 1.116755155	 0.153289246	 0.004517766
O	 0.437822976	 1.185240432	 -0.031401201
N	 0.575063071	 -1.075509457	 0.037732228
H	 -0.437822976	 -1.185240432	 0.031401201
H	 1.162443706	 -1.886186789	 0.066292274
C	 2.621333556	 0.231059639	 0.009143433
H	 2.943192082	 0.728233005	 -0.902597743
H	 3.102013766	 -0.740890833	 0.078033370
H	 2.931954434	 0.848832907	 0.847644618
N	 -3.995184482	 -0.026846304	 2.273321515
H	 -4.397912037	 -0.918554212	 2.526317256
C	 -4.709708459	 1.112419893	 2.680853209
O	 -5.752467361	 0.995696736	 3.302138027
C	 -4.070927397	 2.351055678	 2.283048086
H	 -4.538767995	 3.283555632	 2.547230203
C	 -2.909964574	 2.311333691	 1.594093653
H	 -2.394897306	 3.205554226	 1.274982529
N	 -2.296750471	 1.140408950	 1.247141616
H	 -1.408025645	 1.148294406	 0.720981013
C	 -2.813537988	 -0.085023534	 1.573244557
O	 -2.277371165	 -1.148294406	 1.272177944
