21
0  1  0  1  0  1   9  12 -17.36760 -16.51908 -16.29457 -17.14309 -16.36241 -16.84215 -12.87131 -12.87858 -12.94590 -16.80286 -28.44218 33.95138 -13.35407 -8.95798
C	 1.116755155	 0.153289246	 0.004517766
O	 0.437822976	 1.185240432	 -0.031401201
N	 0.575063071	 -1.075509457	 0.037732228
H	 -0.437822976	 -1.185240432	 0.031401201
H	 1.162443706	 -1.886186789	 0.066292274
C	 2.621333556	 0.231059639	 0.009143433
H	 2.943192082	 0.728233005	 -0.902597743
H	 3.102013766	 -0.740890833	 0.078033370
H	 2.931954434	 0.848832907	 0.847644618
N	 -3.776468916	 -0.026846304	 -2.086418883
H	 -4.196933433	 -0.918554212	 -2.308693306
C	 -4.486663705	 1.112419893	 -2.501448952
O	 -5.546091591	 0.995696736	 -3.093862242
C	 -3.822763832	 2.351055678	 -2.147150885
H	 -4.285472555	 3.283555632	 -2.420221670
C	 -2.645630379	 2.311333691	 -1.486204805
H	 -2.111738405	 3.205554226	 -1.199699028
N	 -2.038554050	 1.140408950	 -1.128621832
H	 -1.138523188	 1.148294406	 -0.622043858
C	 -2.579361239	 -0.085023534	 -1.413121480
O	 -2.050546492	 -1.148294406	 -1.099320697
