24
0  1  0  1  0  1  12  12 -0.01741  0.44500 -1.93194 -2.39434 -2.00271 -2.23253  9.35356  9.35326  9.34520  0.05035 -6.56123 17.92826 -1.76068 -9.55600
C	 -2.963055016	 1.163493109	 0.683565982
H	 -2.689399547	 2.065013118	 1.214688534
C	 -2.718931887	 1.061444595	 -0.684187496
H	 -2.250892214	 1.880537896	 -1.212644848
C	 -3.066821986	 -0.101748008	 -1.367995320
H	 -2.874797020	 -0.181762567	 -2.429452066
C	 -3.656493451	 -1.163393206	 -0.684379735
H	 -3.926457535	 -2.066109818	 -1.215803224
C	 -3.898414736	 -1.062004210	 0.684664844
H	 -4.357190615	 -1.885345658	 1.215526225
C	 -3.553656916	 0.102641678	 1.368124019
H	 -3.743054367	 0.182488579	 2.430168807
C	 0.604973323	 1.163199599	 0.766596350
H	 0.573310140	 2.065777311	 1.362007621
C	 1.499234407	 1.061718504	 -0.297920598
H	 2.162379144	 1.884852839	 -0.527894070
C	 1.542045079	 -0.102739101	 -1.062509418
H	 2.237218414	 -0.182626723	 -1.887465407
C	 0.687752737	 -1.163304897	 -0.765450594
H	 0.716044996	 -2.064618316	 -1.362526880
C	 -0.207722779	 -1.061155617	 0.296816892
H	 -0.877731947	 -1.879981034	 0.520023808
C	 -0.248020063	 0.101831731	 1.063266332
H	 -0.945230354	 0.181955550	 1.886334393
