24
0  1  0  1  0  1  12  12 -1.29200 -1.00600 -2.87860 -3.16461 -2.93099 -3.06894  5.89281  5.89382  5.88697 -1.40745 -3.12413  9.98154 -0.96935 -7.29552
C	 -3.194171359	 1.163493156	 0.683565862
H	 -2.920515890	 2.065013165	 1.214688414
C	 -2.950048230	 1.061444642	 -0.684187616
H	 -2.482008557	 1.880537943	 -1.212644968
C	 -3.297938329	 -0.101747961	 -1.367995440
H	 -3.105913363	 -0.181762520	 -2.429452186
C	 -3.887609794	 -1.163393159	 -0.684379855
H	 -4.157573878	 -2.066109771	 -1.215803344
C	 -4.129531079	 -1.062004163	 0.684664724
H	 -4.588306958	 -1.885345611	 1.215526105
C	 -3.784773259	 0.102641725	 1.368123899
H	 -3.974170710	 0.182488626	 2.430168687
C	 1.062252329	 1.163199599	 0.419017769
H	 1.562062024	 2.065777311	 0.744144526
C	 0.587484151	 1.061718504	 -0.887693521
H	 0.719893651	 1.884852839	 -1.576980445
C	 -0.053263854	 -0.102739101	 -1.307063060
H	 -0.420110030	 -0.182626723	 -2.321578823
C	 -0.223149537	 -1.163304897	 -0.418694778
H	 -0.726086639	 -2.064618316	 -0.741734736
C	 0.249063333	 -1.061155617	 0.887943510
H	 0.107361609	 -1.879981034	 1.579791928
C	 0.892679377	 0.101831731	 1.306066702
H	 1.256872081	 0.181955550	 2.321402556
