24
0  1  0  1  0  1  12  12  9.72305 10.62821  6.38494  5.47977  6.28460  5.80752 26.50108 26.49975 26.47180 10.17680 -17.46737 47.75494 -3.61183 -16.49894
C	 -1.087467824	 0.788605855	 -0.683565965
H	 -1.361123293	 1.690125864	 -1.214688517
C	 -1.331590953	 0.686557341	 0.684187513
H	 -1.799630626	 1.505650642	 1.212644865
C	 -0.983700854	 -0.476635262	 1.367995337
H	 -1.175725820	 -0.556649821	 2.429452083
C	 -0.394029389	 -1.538280460	 0.684379752
H	 -0.124065305	 -2.440997072	 1.215803241
C	 -0.152108104	 -1.436891464	 -0.684664827
H	 0.306667775	 -2.260232912	 -1.215526208
C	 -0.496865924	 -0.272245576	 -1.368124002
H	 -0.307468472	 -0.192398675	 -2.430168790
C	 -4.588417406	 -1.040864090	 -0.684514631
H	 -5.273779517	 -0.394351120	 -1.215987509
C	 -4.747423311	 -1.249846467	 0.684514631
H	 -5.556767596	 -0.766647949	 1.215249868
C	 -3.866225841	 -2.085686694	 1.368073308
H	 -3.990445610	 -2.249651292	 2.430092819
C	 -2.823853931	 -2.708508887	 0.683666649
H	 -2.135874800	 -3.352051041	 1.214896010
C	 -2.663297249	 -2.497859615	 -0.684021737
H	 -1.848029094	 -2.972662476	 -1.212329181
C	 -3.546450302	 -1.664846151	 -1.367935065
H	 -3.420003419	 -1.499322992	 -2.429338060
