24
0  1  0  1  0  1  12  12 58.46043 61.01668 51.74103 49.18478 51.56166 50.16333 93.69650 93.69623 93.63887 57.32271 -71.58806 179.20841 -15.06334 -35.23431
C	 -2.060649477	 1.163492741	 0.683566011
H	 -1.786994008	 2.065012750	 1.214688563
C	 -1.816526348	 1.061444227	 -0.684187467
H	 -1.348486675	 1.880537528	 -1.212644819
C	 -2.164416447	 -0.101748376	 -1.367995291
H	 -1.972391481	 -0.181762935	 -2.429452037
C	 -2.754087912	 -1.163393574	 -0.684379706
H	 -3.024051996	 -2.066110186	 -1.215803195
C	 -2.996009197	 -1.062004578	 0.684664873
H	 -3.454785076	 -1.885346026	 1.215526254
C	 -2.651251377	 0.102641310	 1.368124048
H	 -2.840648828	 0.182488211	 2.430168836
C	 1.606788039	 0.833571112	 0.684514631
H	 2.292150151	 1.480084082	 1.215987509
C	 1.765793945	 0.624588735	 -0.684514631
H	 2.575138230	 1.107787253	 -1.215249868
C	 0.884596475	 -0.211251492	 -1.368073308
H	 1.008816244	 -0.375216090	 -2.430092819
C	 -0.157775435	 -0.834073685	 -0.683666649
H	 -0.845754566	 -1.477615839	 -1.214896010
C	 -0.318332118	 -0.623424413	 0.684021737
H	 -1.133600272	 -1.098227274	 1.212329181
C	 0.564820936	 0.209589051	 1.367935065
H	 0.438374052	 0.375112210	 2.429338060
