24
0  1  0  1  0  1  12  12 -1.35105 -1.28104 -2.06814 -2.13815 -2.09211 -2.12075  1.56689  1.56584  1.56104 -1.53554  0.12395  1.48659 -0.19685 -2.94923
C	 -3.814961272	 1.163493227	 0.683565828
H	 -3.541305803	 2.065013236	 1.214688380
C	 -3.570838143	 1.061444713	 -0.684187650
H	 -3.102798470	 1.880538014	 -1.212645002
C	 -3.918728242	 -0.101747890	 -1.367995474
H	 -3.726703276	 -0.181762449	 -2.429452220
C	 -4.508399707	 -1.163393088	 -0.684379889
H	 -4.778363791	 -2.066109700	 -1.215803378
C	 -4.750320992	 -1.062004092	 0.684664690
H	 -5.209096871	 -1.885345540	 1.215526071
C	 -4.405563172	 0.102641796	 1.368123865
H	 -4.594960623	 0.182488697	 2.430168653
C	 0.094510082	 1.181149693	 0.684514631
H	 -0.122705518	 2.097947177	 1.215987509
C	 0.354997083	 1.214361658	 -0.684514631
H	 0.341207033	 2.156873628	 -1.215249868
C	 0.638257218	 0.033302150	 -1.368073308
H	 0.842364609	 0.058897326	 -2.430092819
C	 0.656451104	 -1.180829501	 -0.683666649
H	 0.869785392	 -2.098407983	 -1.214896010
C	 0.393745141	 -1.214551031	 0.684021737
H	 0.397302404	 -2.157995394	 1.212329181
C	 0.113910847	 -0.033211319	 1.367935065
H	 -0.092659856	 -0.059955953	 2.429338060
