24
0  1  0  1  0  1  12  12 -1.28224 -1.02905 -2.76477 -3.01796 -2.81311 -2.93505  5.42039  5.42108  5.41275 -1.42364 -2.24973  8.31959 -0.76469 -6.72881
C	 -0.531596636	 1.069771367	 -0.683565897
H	 -0.805252105	 1.971291376	 -1.214688449
C	 -0.775719765	 0.967722853	 0.684187581
H	 -1.243759438	 1.786816154	 1.212644933
C	 -0.427829666	 -0.195469750	 1.367995405
H	 -0.619854632	 -0.275484309	 2.429452151
C	 0.161841799	 -1.257114948	 0.684379820
H	 0.431805883	 -2.159831560	 1.215803309
C	 0.403763084	 -1.155725952	 -0.684664759
H	 0.862538963	 -1.979067400	 -1.215526140
C	 0.059005264	 0.008919936	 -1.368123934
H	 0.248402716	 0.088766837	 -2.430168722
C	 -4.588417406	 -1.040864090	 -0.684514631
H	 -5.273779517	 -0.394351120	 -1.215987509
C	 -4.747423311	 -1.249846467	 0.684514631
H	 -5.556767596	 -0.766647949	 1.215249868
C	 -3.866225841	 -2.085686694	 1.368073308
H	 -3.990445610	 -2.249651292	 2.430092819
C	 -2.823853931	 -2.708508887	 0.683666649
H	 -2.135874800	 -3.352051041	 1.214896010
C	 -2.663297249	 -2.497859615	 -0.684021737
H	 -1.848029094	 -2.972662476	 -1.212329181
C	 -3.546450302	 -1.664846151	 -1.367935065
H	 -3.420003419	 -1.499322992	 -2.429338060
