24
0  1  0  1  0  1  12  12 51.04740 53.34375 44.52719 42.23083 44.34862 43.09745 84.17022 84.17052 84.10694 50.26568 -66.54917 163.68463 -13.35478 -33.51500
C	 -1.463788137	 1.163492919	 -1.245896760
H	 -1.737443606	 2.065012928	 -1.777019312
C	 -1.707911266	 1.061444405	 0.121856718
H	 -2.175950939	 1.880537706	 0.650314070
C	 -1.360021167	 -0.101748198	 0.805664542
H	 -1.552046133	 -0.181762757	 1.867121288
C	 -0.770349702	 -1.163393396	 0.122048957
H	 -0.500385618	 -2.066110008	 0.653472446
C	 -0.528428417	 -1.062004400	 -1.246995622
H	 -0.069652538	 -1.885345848	 -1.777857003
C	 -0.873186237	 0.102641488	 -1.930454797
H	 -0.683788785	 0.182488389	 -2.992499585
C	 -3.683691902	 1.163199599	 -2.641031552
H	 -3.652028718	 2.065777311	 -3.236442823
C	 -4.577952986	 1.061718504	 -1.576514604
H	 -5.241097722	 1.884852839	 -1.346541132
C	 -4.620763657	 -0.102739101	 -0.811925784
H	 -5.315936992	 -0.182626723	 0.013030205
C	 -3.766471315	 -1.163304897	 -1.108984608
H	 -3.794763574	 -2.064618316	 -0.511908322
C	 -2.870995800	 -1.061155617	 -2.171252094
H	 -2.200986632	 -1.879981034	 -2.394459010
C	 -2.830698515	 0.101831731	 -2.937701534
H	 -2.133488225	 0.181955550	 -3.760769595
