24
0  1  0  1  0  1  12  12 -1.89348 -1.55129 -3.43600 -3.77818 -3.49746 -3.66190  5.52851  5.52876  5.52367 -1.96769 -3.84116 10.65149 -1.10147 -7.67655
C	 -0.541577338	 1.257214953	 -0.683565897
H	 -0.815232807	 2.158734962	 -1.214688449
C	 -0.785700467	 1.155166439	 0.684187581
H	 -1.253740140	 1.974259740	 1.212644933
C	 -0.437810368	 -0.008026164	 1.367995405
H	 -0.629835334	 -0.088040723	 2.429452151
C	 0.151861097	 -1.069671362	 0.684379820
H	 0.421825181	 -1.972387974	 1.215803309
C	 0.393782382	 -0.968282366	 -0.684664759
H	 0.852558261	 -1.791623814	 -1.215526140
C	 0.049024562	 0.196363522	 -1.368123934
H	 0.238422014	 0.276210423	 -2.430168722
C	 -3.624831355	 3.055584895	 -0.684514631
H	 -3.407615754	 3.972382379	 -1.215987509
C	 -3.885318355	 3.088796860	 0.684514631
H	 -3.871528305	 4.031308830	 1.215249868
C	 -4.168578490	 1.907737352	 1.368073308
H	 -4.372685881	 1.933332528	 2.430092819
C	 -4.186772376	 0.693605701	 0.683666649
H	 -4.400106664	 -0.223972781	 1.214896010
C	 -3.924066414	 0.659884171	 -0.684021737
H	 -3.927623676	 -0.283560192	 -1.212329181
C	 -3.644232119	 1.841223883	 -1.367935065
H	 -3.437661417	 1.814479249	 -2.429338060
