24
0  1  0  1  0  1  12  12 -2.01419 -1.92037 -2.63132 -2.72514 -2.65707 -2.69595  0.74668  0.74894  0.75005 -2.18373 -0.60635  1.65136 -0.24871 -2.98002
C	 -3.849869060	 1.163493358	 0.683565828
H	 -3.576213591	 2.065013367	 1.214688380
C	 -3.605745931	 1.061444844	 -0.684187650
H	 -3.137706258	 1.880538145	 -1.212645002
C	 -3.953636030	 -0.101747759	 -1.367995474
H	 -3.761611064	 -0.181762318	 -2.429452220
C	 -4.543307495	 -1.163392957	 -0.684379889
H	 -4.813271579	 -2.066109569	 -1.215803378
C	 -4.785228780	 -1.062003961	 0.684664690
H	 -5.244004659	 -1.885345409	 1.215526071
C	 -4.440470960	 0.102641927	 1.368123865
H	 -4.629868411	 0.182488828	 2.430168653
C	 1.606788039	 0.833571112	 0.684514631
H	 2.292150151	 1.480084082	 1.215987509
C	 1.765793945	 0.624588735	 -0.684514631
H	 2.575138230	 1.107787253	 -1.215249868
C	 0.884596475	 -0.211251492	 -1.368073308
H	 1.008816244	 -0.375216090	 -2.430092819
C	 -0.157775435	 -0.834073685	 -0.683666649
H	 -0.845754566	 -1.477615839	 -1.214896010
C	 -0.318332118	 -0.623424413	 0.684021737
H	 -1.133600272	 -1.098227274	 1.212329181
C	 0.564820936	 0.209589051	 1.367935065
H	 0.438374052	 0.375112210	 2.429338060
