24
0  1  0  1  0  1  12  12 10.74526 11.67188  7.38123  6.45461  7.28101  6.79107 27.85280 27.85187 27.82299 11.22932 -18.16005 49.77676 -3.63326 -16.75414
C	 -2.577769947	 1.163493158	 0.683565965
H	 -2.304114478	 2.065013167	 1.214688517
C	 -2.333646818	 1.061444644	 -0.684187513
H	 -1.865607145	 1.880537945	 -1.212644865
C	 -2.681536917	 -0.101747959	 -1.367995337
H	 -2.489511951	 -0.181762518	 -2.429452083
C	 -3.271208382	 -1.163393157	 -0.684379752
H	 -3.541172466	 -2.066109769	 -1.215803241
C	 -3.513129667	 -1.062004161	 0.684664827
H	 -3.971905546	 -1.885345609	 1.215526208
C	 -3.168371847	 0.102641727	 1.368124002
H	 -3.357769298	 0.182488628	 2.430168790
C	 0.094510082	 1.181149693	 0.684514631
H	 -0.122705518	 2.097947177	 1.215987509
C	 0.354997083	 1.214361658	 -0.684514631
H	 0.341207033	 2.156873628	 -1.215249868
C	 0.638257218	 0.033302150	 -1.368073308
H	 0.842364609	 0.058897326	 -2.430092819
C	 0.656451104	 -1.180829501	 -0.683666649
H	 0.869785392	 -2.098407983	 -1.214896010
C	 0.393745141	 -1.214551031	 0.684021737
H	 0.397302404	 -2.157995394	 1.212329181
C	 0.113910847	 -0.033211319	 1.367935065
H	 -0.092659856	 -0.059955953	 2.429338060
