24
0  1  0  1  0  1  12  12 -1.57448 -1.26333 -3.10247 -3.41362 -3.15973 -3.30884  5.56516  5.56617  5.56065 -1.66296 -3.57710 10.34862 -1.08874 -7.34574
C	 -0.539970681	 1.163493156	 -0.589844102
H	 -0.813626150	 2.065013165	 -1.120966654
C	 -0.784093810	 1.061444642	 0.777909376
H	 -1.252133483	 1.880537943	 1.306366728
C	 -0.436203711	 -0.101747961	 1.461717200
H	 -0.628228677	 -0.181762520	 2.523173946
C	 0.153467754	 -1.163393159	 0.778101615
H	 0.423431838	 -2.066109771	 1.309525104
C	 0.395389039	 -1.062004163	 -0.590942964
H	 0.854164918	 -1.885345611	 -1.121804345
C	 0.050631219	 0.102641725	 -1.274402139
H	 0.240028671	 0.182488626	 -2.336446927
C	 -4.516555465	 1.163199599	 1.455417433
H	 -5.016365159	 2.065777311	 1.130290676
C	 -4.041787287	 1.061718504	 2.762128723
H	 -4.174196786	 1.884852839	 3.451415647
C	 -3.401039281	 -0.102739101	 3.181498262
H	 -3.034193105	 -0.182626723	 4.196014025
C	 -3.231153598	 -1.163304897	 2.293129980
H	 -2.728216496	 -2.064618316	 2.616169938
C	 -3.703366469	 -1.061155617	 0.986491692
H	 -3.561664745	 -1.879981034	 0.294643274
C	 -4.346982512	 0.101831731	 0.568368500
H	 -4.711175217	 0.181955550	 -0.446967354
