24
0  1  0  1  0  1  12  12 50.92162 53.23284 44.37668 42.06546 44.19659 42.93640 84.06826 84.06850 84.00181 49.98628 -67.28841 165.08464 -14.10312 -33.70683
C	 -2.152207337	 1.163492919	 0.683565805
H	 -1.878551868	 2.065012928	 1.214688357
C	 -1.908084208	 1.061444405	 -0.684187673
H	 -1.440044535	 1.880537706	 -1.212645025
C	 -2.255974307	 -0.101748198	 -1.367995497
H	 -2.063949341	 -0.181762757	 -2.429452243
C	 -2.845645772	 -1.163393396	 -0.684379912
H	 -3.115609856	 -2.066110008	 -1.215803401
C	 -3.087567057	 -1.062004400	 0.684664667
H	 -3.546342936	 -1.885345848	 1.215526048
C	 -2.742809237	 0.102641488	 1.368123842
H	 -2.932206688	 0.182488389	 2.430168630
C	 1.062252329	 1.163199599	 0.419017769
H	 1.562062024	 2.065777311	 0.744144526
C	 0.587484151	 1.061718504	 -0.887693521
H	 0.719893651	 1.884852839	 -1.576980445
C	 -0.053263854	 -0.102739101	 -1.307063060
H	 -0.420110030	 -0.182626723	 -2.321578823
C	 -0.223149537	 -1.163304897	 -0.418694778
H	 -0.726086639	 -2.064618316	 -0.741734736
C	 0.249063333	 -1.061155617	 0.887943510
H	 0.107361609	 -1.879981034	 1.579791928
C	 0.892679377	 0.101831731	 1.306066702
H	 1.256872081	 0.181955550	 2.321402556
