24
0  1  0  1  0  1  12  12 -1.81497 -1.72717 -2.45591 -2.54371 -2.48170 -2.51768  0.95741  0.95861  0.95830 -1.98782 -0.44701  1.65675 -0.25154 -2.94602
C	 -3.842073312	 1.163493299	 0.683565766
H	 -3.568417843	 2.065013308	 1.214688318
C	 -3.597950183	 1.061444785	 -0.684187712
H	 -3.129910510	 1.880538086	 -1.212645064
C	 -3.945840282	 -0.101747818	 -1.367995536
H	 -3.753815316	 -0.181762377	 -2.429452282
C	 -4.535511747	 -1.163393016	 -0.684379951
H	 -4.805475831	 -2.066109628	 -1.215803440
C	 -4.777433032	 -1.062004020	 0.684664628
H	 -5.236208911	 -1.885345468	 1.215526009
C	 -4.432675212	 0.102641868	 1.368123803
H	 -4.622072663	 0.182488769	 2.430168591
C	 0.604973323	 1.163199599	 0.766596350
H	 0.573310140	 2.065777311	 1.362007621
C	 1.499234407	 1.061718504	 -0.297920598
H	 2.162379144	 1.884852839	 -0.527894070
C	 1.542045079	 -0.102739101	 -1.062509418
H	 2.237218414	 -0.182626723	 -1.887465407
C	 0.687752737	 -1.163304897	 -0.765450594
H	 0.716044996	 -2.064618316	 -1.362526880
C	 -0.207722779	 -1.061155617	 0.296816892
H	 -0.877731947	 -1.879981034	 0.520023808
C	 -0.248020063	 0.101831731	 1.063266332
H	 -0.945230354	 0.181955550	 1.886334393
