24
0  1  0  1  0  1  12  12 -2.34887 -2.20010 -3.24567 -3.39444 -3.28167 -3.34729  1.68687  1.68968  1.68868 -2.54036 -1.06091  3.22173 -0.42268 -4.27850
C	 -0.151035142	 1.069771455	 -0.683565851
H	 -0.424690611	 1.971291464	 -1.214688403
C	 -0.395158271	 0.967722941	 0.684187627
H	 -0.863197944	 1.786816242	 1.212644979
C	 -0.047268172	 -0.195469662	 1.367995451
H	 -0.239293138	 -0.275484221	 2.429452197
C	 0.542403293	 -1.257114860	 0.684379866
H	 0.812367377	 -2.159831472	 1.215803355
C	 0.784324578	 -1.155725864	 -0.684664713
H	 1.243100457	 -1.979067312	 -1.215526094
C	 0.439566758	 0.008920024	 -1.368123888
H	 0.628964210	 0.088766925	 -2.430168676
C	 -3.624831355	 3.055584895	 -0.684514631
H	 -3.407615754	 3.972382379	 -1.215987509
C	 -3.885318355	 3.088796860	 0.684514631
H	 -3.871528305	 4.031308830	 1.215249868
C	 -4.168578490	 1.907737352	 1.368073308
H	 -4.372685881	 1.933332528	 2.430092819
C	 -4.186772376	 0.693605701	 0.683666649
H	 -4.400106664	 -0.223972781	 1.214896010
C	 -3.924066414	 0.659884171	 -0.684021737
H	 -3.927623676	 -0.283560192	 -1.212329181
C	 -3.644232119	 1.841223883	 -1.367935065
H	 -3.437661417	 1.814479249	 -2.429338060
