24
0  1  0  1  0  1  12  12 -0.00018  0.38786 -1.92979 -2.31783 -1.99162 -2.18539  9.05387  9.05416  9.04187 -0.01758 -4.71250 14.97581 -1.26468 -9.01620
C	 -0.716887032	 0.976049529	 -0.683565920
H	 -0.990542501	 1.877569538	 -1.214688472
C	 -0.961010161	 0.874001015	 0.684187558
H	 -1.429049834	 1.693094316	 1.212644910
C	 -0.613120062	 -0.289191588	 1.367995382
H	 -0.805145028	 -0.369206147	 2.429452128
C	 -0.023448597	 -1.350836786	 0.684379797
H	 0.246515487	 -2.253553398	 1.215803286
C	 0.218472688	 -1.249447790	 -0.684664782
H	 0.677248567	 -2.072789238	 -1.215526163
C	 -0.126285132	 -0.084801902	 -1.368123957
H	 0.063112320	 -0.004955001	 -2.430168745
C	 -4.588417406	 -1.040864090	 -0.684514631
H	 -5.273779517	 -0.394351120	 -1.215987509
C	 -4.747423311	 -1.249846467	 0.684514631
H	 -5.556767596	 -0.766647949	 1.215249868
C	 -3.866225841	 -2.085686694	 1.368073308
H	 -3.990445610	 -2.249651292	 2.430092819
C	 -2.823853931	 -2.708508887	 0.683666649
H	 -2.135874800	 -3.352051041	 1.214896010
C	 -2.663297249	 -2.497859615	 -0.684021737
H	 -1.848029094	 -2.972662476	 -1.212329181
C	 -3.546450302	 -1.664846151	 -1.367935065
H	 -3.420003419	 -1.499322992	 -2.429338060
