24
0  1  0  1  0  1  12  12 -1.57671 -1.49690 -2.31457 -2.39438 -2.33994 -2.37266  1.45228  1.45166  1.44871 -1.77083 -0.13108  1.72040 -0.23943 -3.12072
C	 0.026187726	 1.163493299	 -0.496122245
H	 -0.247467743	 2.065013308	 -1.027244797
C	 -0.217935403	 1.061444785	 0.871631233
H	 -0.685975076	 1.880538086	 1.400088585
C	 0.129954696	 -0.101747818	 1.555439057
H	 -0.062070270	 -0.181762377	 2.616895803
C	 0.719626161	 -1.163393016	 0.871823472
H	 0.989590245	 -2.066109628	 1.403246961
C	 0.961547446	 -1.062004020	 -0.497221107
H	 1.420323325	 -1.885345468	 -1.028082488
C	 0.616789626	 0.102641868	 -1.180680282
H	 0.806187078	 0.182488769	 -2.242725070
C	 -3.683691902	 1.163199599	 -2.641031552
H	 -3.652028718	 2.065777311	 -3.236442823
C	 -4.577952986	 1.061718504	 -1.576514604
H	 -5.241097722	 1.884852839	 -1.346541132
C	 -4.620763657	 -0.102739101	 -0.811925784
H	 -5.315936992	 -0.182626723	 0.013030205
C	 -3.766471315	 -1.163304897	 -1.108984608
H	 -3.794763574	 -2.064618316	 -0.511908322
C	 -2.870995800	 -1.061155617	 -2.171252094
H	 -2.200986632	 -1.879981034	 -2.394459010
C	 -2.830698515	 0.101831731	 -2.937701534
H	 -2.133488225	 0.181955550	 -3.760769595
