24
0  1  0  1  0  1  12  12 -1.61018 -1.50441 -2.50367 -2.60944 -2.53359 -2.57954  2.13803  2.13796  2.13300 -1.81109 -0.23419  2.52547 -0.29720 -3.80516
C	 -0.161015844	 1.257215041	 -0.683565851
H	 -0.434671313	 2.158735050	 -1.214688403
C	 -0.405138973	 1.155166527	 0.684187627
H	 -0.873178646	 1.974259828	 1.212644979
C	 -0.057248874	 -0.008026076	 1.367995451
H	 -0.249273840	 -0.088040635	 2.429452197
C	 0.532422591	 -1.069671274	 0.684379866
H	 0.802386675	 -1.972387886	 1.215803355
C	 0.774343876	 -0.968282278	 -0.684664713
H	 1.233119755	 -1.791623726	 -1.215526094
C	 0.429586056	 0.196363610	 -1.368123888
H	 0.618983508	 0.276210511	 -2.430168676
C	 -4.588417406	 -1.040864090	 -0.684514631
H	 -5.273779517	 -0.394351120	 -1.215987509
C	 -4.747423311	 -1.249846467	 0.684514631
H	 -5.556767596	 -0.766647949	 1.215249868
C	 -3.866225841	 -2.085686694	 1.368073308
H	 -3.990445610	 -2.249651292	 2.430092819
C	 -2.823853931	 -2.708508887	 0.683666649
H	 -2.135874800	 -3.352051041	 1.214896010
C	 -2.663297249	 -2.497859615	 -0.684021737
H	 -1.848029094	 -2.972662476	 -1.212329181
C	 -3.546450302	 -1.664846151	 -1.367935065
H	 -3.420003419	 -1.499322992	 -2.429338060
