24
0  1  0  1  0  1  12  12 11.09582 12.16137  7.44485  6.37930  7.33126  6.77065 29.13137 29.12891 29.10459 11.53377 -22.10827 57.17549 -5.38556 -18.14789
C	 -1.120964004	 1.163493014	 -0.308678787
H	 -1.394619473	 2.065013023	 -0.839801339
C	 -1.365087133	 1.061444500	 1.059074691
H	 -1.833126806	 1.880537801	 1.587532043
C	 -1.017197034	 -0.101748103	 1.742882515
H	 -1.209222000	 -0.181762662	 2.804339261
C	 -0.427525569	 -1.163393301	 1.059266930
H	 -0.157561485	 -2.066109913	 1.590690419
C	 -0.185604284	 -1.062004305	 -0.309777649
H	 0.273171595	 -1.885345753	 -0.840639030
C	 -0.530362104	 0.102641583	 -0.993236824
H	 -0.340964652	 0.182488484	 -2.055281612
C	 -4.516555465	 1.163199599	 1.455417433
H	 -5.016365159	 2.065777311	 1.130290676
C	 -4.041787287	 1.061718504	 2.762128723
H	 -4.174196786	 1.884852839	 3.451415647
C	 -3.401039281	 -0.102739101	 3.181498262
H	 -3.034193105	 -0.182626723	 4.196014025
C	 -3.231153598	 -1.163304897	 2.293129980
H	 -2.728216496	 -2.064618316	 2.616169938
C	 -3.703366469	 -1.061155617	 0.986491692
H	 -3.561664745	 -1.879981034	 0.294643274
C	 -4.346982512	 0.101831731	 0.568368500
H	 -4.711175217	 0.181955550	 -0.446967354
