24
0  1  0  1  0  1  12  12 -2.32329 -2.10355 -3.37517 -3.59491 -3.41992 -3.52177  2.78858  2.79101  2.78938 -2.46058 -2.07762  5.63297 -0.63645 -5.37948
C	 -3.402564164	 1.163493204	 0.683565874
H	 -3.128908695	 2.065013213	 1.214688426
C	 -3.158441035	 1.061444690	 -0.684187604
H	 -2.690401362	 1.880537991	 -1.212644956
C	 -3.506331134	 -0.101747913	 -1.367995428
H	 -3.314306168	 -0.181762472	 -2.429452174
C	 -4.096002599	 -1.163393111	 -0.684379843
H	 -4.365966683	 -2.066109723	 -1.215803332
C	 -4.337923884	 -1.062004115	 0.684664736
H	 -4.796699763	 -1.885345563	 1.215526117
C	 -3.993166064	 0.102641773	 1.368123911
H	 -4.182563515	 0.182488674	 2.430168699
C	 1.606788039	 0.833571112	 0.684514631
H	 2.292150151	 1.480084082	 1.215987509
C	 1.765793945	 0.624588735	 -0.684514631
H	 2.575138230	 1.107787253	 -1.215249868
C	 0.884596475	 -0.211251492	 -1.368073308
H	 1.008816244	 -0.375216090	 -2.430092819
C	 -0.157775435	 -0.834073685	 -0.683666649
H	 -0.845754566	 -1.477615839	 -1.214896010
C	 -0.318332118	 -0.623424413	 0.684021737
H	 -1.133600272	 -1.098227274	 1.212329181
C	 0.564820936	 0.209589051	 1.367935065
H	 0.438374052	 0.375112210	 2.429338060
