24
0  1  0  1  0  1  12  12  0.19833  0.63101 -1.86063 -2.29331 -1.92766 -2.14373  9.83084  9.83156  9.82047  0.22900 -5.98471 17.46009 -1.54955 -9.69684
C	 -0.718800206	 1.163493109	 -0.871009503
H	 -0.992455675	 2.065013118	 -1.402132055
C	 -0.962923335	 1.061444595	 0.496743975
H	 -1.430963008	 1.880537896	 1.025201327
C	 -0.615033236	 -0.101748008	 1.180551799
H	 -0.807058202	 -0.181762567	 2.242008545
C	 -0.025361771	 -1.163393206	 0.496936214
H	 0.244602313	 -2.066109818	 1.028359703
C	 0.216559514	 -1.062004210	 -0.872108365
H	 0.675335393	 -1.885345658	 -1.402969746
C	 -0.128198306	 0.102641678	 -1.555567540
H	 0.061199146	 0.182488579	 -2.617612328
C	 -3.683691902	 1.163199599	 -2.641031552
H	 -3.652028718	 2.065777311	 -3.236442823
C	 -4.577952986	 1.061718504	 -1.576514604
H	 -5.241097722	 1.884852839	 -1.346541132
C	 -4.620763657	 -0.102739101	 -0.811925784
H	 -5.315936992	 -0.182626723	 0.013030205
C	 -3.766471315	 -1.163304897	 -1.108984608
H	 -3.794763574	 -2.064618316	 -0.511908322
C	 -2.870995800	 -1.061155617	 -2.171252094
H	 -2.200986632	 -1.879981034	 -2.394459010
C	 -2.830698515	 0.101831731	 -2.937701534
H	 -2.133488225	 0.181955550	 -3.760769595
