24
0  1  0  1  0  1  12  12 -1.78441 -1.66093 -2.73337 -2.85685 -2.76565 -2.81986  2.24320  2.24321  2.23968 -1.98828 -0.60895  3.13613 -0.37670 -4.13875
C	 -3.610956969	 1.163493252	 0.683565886
H	 -3.337301500	 2.065013261	 1.214688438
C	 -3.366833840	 1.061444738	 -0.684187592
H	 -2.898794167	 1.880538039	 -1.212644944
C	 -3.714723939	 -0.101747865	 -1.367995416
H	 -3.522698973	 -0.181762424	 -2.429452162
C	 -4.304395404	 -1.163393063	 -0.684379831
H	 -4.574359488	 -2.066109675	 -1.215803320
C	 -4.546316689	 -1.062004067	 0.684664748
H	 -5.005092568	 -1.885345515	 1.215526129
C	 -4.201558869	 0.102641821	 1.368123923
H	 -4.390956320	 0.182488722	 2.430168711
C	 1.062252329	 1.163199599	 0.419017769
H	 1.562062024	 2.065777311	 0.744144526
C	 0.587484151	 1.061718504	 -0.887693521
H	 0.719893651	 1.884852839	 -1.576980445
C	 -0.053263854	 -0.102739101	 -1.307063060
H	 -0.420110030	 -0.182626723	 -2.321578823
C	 -0.223149537	 -1.163304897	 -0.418694778
H	 -0.726086639	 -2.064618316	 -0.741734736
C	 0.249063333	 -1.061155617	 0.887943510
H	 0.107361609	 -1.879981034	 1.579791928
C	 0.892679377	 0.101831731	 1.306066702
H	 1.256872081	 0.181955550	 2.321402556
