24
0  1  0  1  0  1  12  12 50.81949 53.23966 44.02574 41.60556 43.83908 42.51679 84.61977 84.61608 84.54252 49.54044 -69.45671 170.92204 -17.42914 -34.49575
C	 -1.508292886	 1.163492919	 -0.121235244
H	 -1.781948355	 2.065012928	 -0.652357796
C	 -1.752416015	 1.061444405	 1.246518234
H	 -2.220455688	 1.880537706	 1.774975586
C	 -1.404525916	 -0.101748198	 1.930326058
H	 -1.596550882	 -0.181762757	 2.991782804
C	 -0.814854451	 -1.163393396	 1.246710473
H	 -0.544890367	 -2.066110008	 1.778133962
C	 -0.572933166	 -1.062004400	 -0.122334106
H	 -0.114157287	 -1.885345848	 -0.653195487
C	 -0.917690986	 0.102641488	 -0.805793281
H	 -0.728293534	 0.182488389	 -1.867838069
C	 -4.516555465	 1.163199599	 1.455417433
H	 -5.016365159	 2.065777311	 1.130290676
C	 -4.041787287	 1.061718504	 2.762128723
H	 -4.174196786	 1.884852839	 3.451415647
C	 -3.401039281	 -0.102739101	 3.181498262
H	 -3.034193105	 -0.182626723	 4.196014025
C	 -3.231153598	 -1.163304897	 2.293129980
H	 -2.728216496	 -2.064618316	 2.616169938
C	 -3.703366469	 -1.061155617	 0.986491692
H	 -3.561664745	 -1.879981034	 0.294643274
C	 -4.346982512	 0.101831731	 0.568368500
H	 -4.711175217	 0.181955550	 -0.446967354
