24
0  1  0  1  0  1  12  12 -1.29291 -1.00879 -2.86986 -3.15399 -2.92148 -3.05882  5.85475  5.85581  5.84888 -1.40929 -3.06925  9.85639 -0.94534 -7.25110
C	 -0.532553223	 1.163493156	 -0.777287688
H	 -0.806208692	 2.065013165	 -1.308410240
C	 -0.776676352	 1.061444642	 0.590465790
H	 -1.244716025	 1.880537943	 1.118923142
C	 -0.428786253	 -0.101747961	 1.274273614
H	 -0.620811219	 -0.181762520	 2.335730360
C	 0.160885212	 -1.163393159	 0.590658029
H	 0.430849296	 -2.066109771	 1.122081518
C	 0.402806497	 -1.062004163	 -0.778386550
H	 0.861582376	 -1.885345611	 -1.309247931
C	 0.058048677	 0.102641725	 -1.461845725
H	 0.247446129	 0.182488626	 -2.523890513
C	 -3.683691902	 1.163199599	 -2.641031552
H	 -3.652028718	 2.065777311	 -3.236442823
C	 -4.577952986	 1.061718504	 -1.576514604
H	 -5.241097722	 1.884852839	 -1.346541132
C	 -4.620763657	 -0.102739101	 -0.811925784
H	 -5.315936992	 -0.182626723	 0.013030205
C	 -3.766471315	 -1.163304897	 -1.108984608
H	 -3.794763574	 -2.064618316	 -0.511908322
C	 -2.870995800	 -1.061155617	 -2.171252094
H	 -2.200986632	 -1.879981034	 -2.394459010
C	 -2.830698515	 0.101831731	 -2.937701534
H	 -2.133488225	 0.181955550	 -3.760769595
