24
0  1  0  1  0  1  12  12 57.83426 60.42219 50.76717 48.17924 50.58264 49.16701 93.85595 93.85489 93.79288 56.65851 -72.24897 180.81627 -15.94716 -35.96163
C	 -1.517932826	 1.725823696	 -0.683566011
H	 -1.791588295	 2.627343705	 -1.214688563
C	 -1.762055955	 1.623775182	 0.684187467
H	 -2.230095628	 2.442868483	 1.212644819
C	 -1.414165856	 0.460582579	 1.367995291
H	 -1.606190822	 0.380568020	 2.429452037
C	 -0.824494391	 -0.601062619	 0.684379706
H	 -0.554530307	 -1.503779231	 1.215803195
C	 -0.582573106	 -0.499673623	 -0.684664873
H	 -0.123797227	 -1.323015071	 -1.215526254
C	 -0.927330926	 0.664972265	 -1.368124048
H	 -0.737933474	 0.744819166	 -2.430168836
C	 -3.624831355	 3.055584895	 -0.684514631
H	 -3.407615754	 3.972382379	 -1.215987509
C	 -3.885318355	 3.088796860	 0.684514631
H	 -3.871528305	 4.031308830	 1.215249868
C	 -4.168578490	 1.907737352	 1.368073308
H	 -4.372685881	 1.933332528	 2.430092819
C	 -4.186772376	 0.693605701	 0.683666649
H	 -4.400106664	 -0.223972781	 1.214896010
C	 -3.924066414	 0.659884171	 -0.684021737
H	 -3.927623676	 -0.283560192	 -1.212329181
C	 -3.644232119	 1.841223883	 -1.367935065
H	 -3.437661417	 1.814479249	 -2.429338060
