24
0  1  0  1  0  1  12  12 50.37951 52.55576 44.46338 42.28713 44.29950 43.10551 82.53518 82.53512 82.46261 49.94098 -61.04134 153.93348 -10.98270 -31.96848
C	 -2.165372839	 1.163493135	 0.683566011
H	 -1.891717370	 2.065013144	 1.214688563
C	 -1.921249710	 1.061444621	 -0.684187467
H	 -1.453210037	 1.880537922	 -1.212644819
C	 -2.269139809	 -0.101747982	 -1.367995291
H	 -2.077114843	 -0.181762541	 -2.429452037
C	 -2.858811274	 -1.163393180	 -0.684379706
H	 -3.128775358	 -2.066109792	 -1.215803195
C	 -3.100732559	 -1.062004184	 0.684664873
H	 -3.559508438	 -1.885345632	 1.215526254
C	 -2.755974739	 0.102641704	 1.368124048
H	 -2.945372190	 0.182488605	 2.430168836
C	 0.094510082	 1.181149693	 0.684514631
H	 -0.122705518	 2.097947177	 1.215987509
C	 0.354997083	 1.214361658	 -0.684514631
H	 0.341207033	 2.156873628	 -1.215249868
C	 0.638257218	 0.033302150	 -1.368073308
H	 0.842364609	 0.058897326	 -2.430092819
C	 0.656451104	 -1.180829501	 -0.683666649
H	 0.869785392	 -2.098407983	 -1.214896010
C	 0.393745141	 -1.214551031	 0.684021737
H	 0.397302404	 -2.157995394	 1.212329181
C	 0.113910847	 -0.033211319	 1.367935065
H	 -0.092659856	 -0.059955953	 2.429338060
