24
0  1  0  1  0  1  12  12 -1.52172 -1.35214 -2.69148 -2.86106 -2.72938 -2.80835  3.60107  3.60112  3.59437 -1.70491 -0.96679  4.88670 -0.47939 -5.14543
C	 -3.402564164	 1.163493204	 0.683565874
H	 -3.128908695	 2.065013213	 1.214688426
C	 -3.158441035	 1.061444690	 -0.684187604
H	 -2.690401362	 1.880537991	 -1.212644956
C	 -3.506331134	 -0.101747913	 -1.367995428
H	 -3.314306168	 -0.181762472	 -2.429452174
C	 -4.096002599	 -1.163393111	 -0.684379843
H	 -4.365966683	 -2.066109723	 -1.215803332
C	 -4.337923884	 -1.062004115	 0.684664736
H	 -4.796699763	 -1.885345563	 1.215526117
C	 -3.993166064	 0.102641773	 1.368123911
H	 -4.182563515	 0.182488674	 2.430168699
C	 0.094510082	 1.181149693	 0.684514631
H	 -0.122705518	 2.097947177	 1.215987509
C	 0.354997083	 1.214361658	 -0.684514631
H	 0.341207033	 2.156873628	 -1.215249868
C	 0.638257218	 0.033302150	 -1.368073308
H	 0.842364609	 0.058897326	 -2.430092819
C	 0.656451104	 -1.180829501	 -0.683666649
H	 0.869785392	 -2.098407983	 -1.214896010
C	 0.393745141	 -1.214551031	 0.684021737
H	 0.397302404	 -2.157995394	 1.212329181
C	 0.113910847	 -0.033211319	 1.367935065
H	 -0.092659856	 -0.059955953	 2.429338060
