24
0  1  0  1  0  1  12  12 -1.58747 -1.50690 -2.32914 -2.40972 -2.35472 -2.38772  1.45854  1.45798  1.45512 -1.78222 -0.14259  1.74464 -0.24377 -3.14050
C	 -3.819349773	 1.163493299	 0.683565897
H	 -3.545694304	 2.065013308	 1.214688449
C	 -3.575226644	 1.061444785	 -0.684187581
H	 -3.107186971	 1.880538086	 -1.212644933
C	 -3.923116743	 -0.101747818	 -1.367995405
H	 -3.731091777	 -0.181762377	 -2.429452151
C	 -4.512788208	 -1.163393016	 -0.684379820
H	 -4.782752292	 -2.066109628	 -1.215803309
C	 -4.754709493	 -1.062004020	 0.684664759
H	 -5.213485372	 -1.885345468	 1.215526140
C	 -4.409951673	 0.102641868	 1.368123934
H	 -4.599349124	 0.182488769	 2.430168722
C	 1.062252329	 1.163199599	 0.419017769
H	 1.562062024	 2.065777311	 0.744144526
C	 0.587484151	 1.061718504	 -0.887693521
H	 0.719893651	 1.884852839	 -1.576980445
C	 -0.053263854	 -0.102739101	 -1.307063060
H	 -0.420110030	 -0.182626723	 -2.321578823
C	 -0.223149537	 -1.163304897	 -0.418694778
H	 -0.726086639	 -2.064618316	 -0.741734736
C	 0.249063333	 -1.061155617	 0.887943510
H	 0.107361609	 -1.879981034	 1.579791928
C	 0.892679377	 0.101831731	 1.306066702
H	 1.256872081	 0.181955550	 2.321402556
