24
0  1  0  1  0  1  12  12  0.37111  0.76922 -1.58753 -1.98564 -1.64895 -1.84917  9.63013  9.63025  9.61705  0.37759 -4.91901 15.74843 -1.28264 -9.16919
C	 -2.990167056	 1.163493181	 0.683565920
H	 -2.716511587	 2.065013190	 1.214688472
C	 -2.746043927	 1.061444667	 -0.684187558
H	 -2.278004254	 1.880537968	 -1.212644910
C	 -3.093934026	 -0.101747936	 -1.367995382
H	 -2.901909060	 -0.181762495	 -2.429452128
C	 -3.683605491	 -1.163393134	 -0.684379797
H	 -3.953569575	 -2.066109746	 -1.215803286
C	 -3.925526776	 -1.062004138	 0.684664782
H	 -4.384302655	 -1.885345586	 1.215526163
C	 -3.580768956	 0.102641750	 1.368123957
H	 -3.770166407	 0.182488651	 2.430168745
C	 0.094510082	 1.181149693	 0.684514631
H	 -0.122705518	 2.097947177	 1.215987509
C	 0.354997083	 1.214361658	 -0.684514631
H	 0.341207033	 2.156873628	 -1.215249868
C	 0.638257218	 0.033302150	 -1.368073308
H	 0.842364609	 0.058897326	 -2.430092819
C	 0.656451104	 -1.180829501	 -0.683666649
H	 0.869785392	 -2.098407983	 -1.214896010
C	 0.393745141	 -1.214551031	 0.684021737
H	 0.397302404	 -2.157995394	 1.212329181
C	 0.113910847	 -0.033211319	 1.367935065
H	 -0.092659856	 -0.059955953	 2.429338060
