24
0  1  0  1  0  1  12  12 -2.06759 -1.86120 -3.23017 -3.43657 -3.27481 -3.36975  3.21385  3.21555  3.21216 -2.23082 -1.84746  5.76559 -0.66244 -5.48652
C	 -0.346306240	 1.163493204	 -0.683565874
H	 -0.619961709	 2.065013213	 -1.214688426
C	 -0.590429369	 1.061444690	 0.684187604
H	 -1.058469042	 1.880537991	 1.212644956
C	 -0.242539270	 -0.101747913	 1.367995428
H	 -0.434564236	 -0.181762472	 2.429452174
C	 0.347132195	 -1.163393111	 0.684379843
H	 0.617096279	 -2.066109723	 1.215803332
C	 0.589053480	 -1.062004115	 -0.684664736
H	 1.047829359	 -1.885345563	 -1.215526117
C	 0.244295660	 0.102641773	 -1.368123911
H	 0.433693112	 0.182488674	 -2.430168699
C	 -4.516555465	 1.163199599	 1.455417433
H	 -5.016365159	 2.065777311	 1.130290676
C	 -4.041787287	 1.061718504	 2.762128723
H	 -4.174196786	 1.884852839	 3.451415647
C	 -3.401039281	 -0.102739101	 3.181498262
H	 -3.034193105	 -0.182626723	 4.196014025
C	 -3.231153598	 -1.163304897	 2.293129980
H	 -2.728216496	 -2.064618316	 2.616169938
C	 -3.703366469	 -1.061155617	 0.986491692
H	 -3.561664745	 -1.879981034	 0.294643274
C	 -4.346982512	 0.101831731	 0.568368500
H	 -4.711175217	 0.181955550	 -0.446967354
