24
0  1  0  1  0  1  12  12 -2.27992 -2.13597 -3.08146 -3.22541 -3.11518 -3.17889  1.46552  1.46847  1.46851 -2.44899 -1.12211  3.06071 -0.39294 -3.99465
C	 -3.626216612	 1.163493281	 0.683565851
H	 -3.352561143	 2.065013290	 1.214688403
C	 -3.382093483	 1.061444767	 -0.684187627
H	 -2.914053810	 1.880538068	 -1.212644979
C	 -3.729983582	 -0.101747836	 -1.367995451
H	 -3.537958616	 -0.181762395	 -2.429452197
C	 -4.319655047	 -1.163393034	 -0.684379866
H	 -4.589619131	 -2.066109646	 -1.215803355
C	 -4.561576332	 -1.062004038	 0.684664713
H	 -5.020352211	 -1.885345486	 1.215526094
C	 -4.216818512	 0.102641850	 1.368123888
H	 -4.406215963	 0.182488751	 2.430168676
C	 1.606788039	 0.833571112	 0.684514631
H	 2.292150151	 1.480084082	 1.215987509
C	 1.765793945	 0.624588735	 -0.684514631
H	 2.575138230	 1.107787253	 -1.215249868
C	 0.884596475	 -0.211251492	 -1.368073308
H	 1.008816244	 -0.375216090	 -2.430092819
C	 -0.157775435	 -0.834073685	 -0.683666649
H	 -0.845754566	 -1.477615839	 -1.214896010
C	 -0.318332118	 -0.623424413	 0.684021737
H	 -1.133600272	 -1.098227274	 1.212329181
C	 0.564820936	 0.209589051	 1.367935065
H	 0.438374052	 0.375112210	 2.429338060
