24
0  1  0  1  0  1  12  12 -1.77451 -1.65215 -2.71849 -2.84085 -2.75040 -2.80421  2.23072  2.23069  2.22708 -1.97852 -0.59009  3.09390 -0.36927 -4.11305
C	 -0.160059257	 1.163493252	 -0.589844060
H	 -0.433714726	 2.065013261	 -1.120966612
C	 -0.404182386	 1.061444738	 0.777909418
H	 -0.872222059	 1.880538039	 1.306366770
C	 -0.056292287	 -0.101747865	 1.461717242
H	 -0.248317253	 -0.181762424	 2.523173988
C	 0.533379178	 -1.163393063	 0.778101657
H	 0.803343262	 -2.066109675	 1.309525146
C	 0.775300463	 -1.062004067	 -0.590942922
H	 1.234076342	 -1.885345515	 -1.121804303
C	 0.430542643	 0.102641821	 -1.274402097
H	 0.619940095	 0.182488722	 -2.336446885
C	 -3.683691902	 1.163199599	 -2.641031552
H	 -3.652028718	 2.065777311	 -3.236442823
C	 -4.577952986	 1.061718504	 -1.576514604
H	 -5.241097722	 1.884852839	 -1.346541132
C	 -4.620763657	 -0.102739101	 -0.811925784
H	 -5.315936992	 -0.182626723	 0.013030205
C	 -3.766471315	 -1.163304897	 -1.108984608
H	 -3.794763574	 -2.064618316	 -0.511908322
C	 -2.870995800	 -1.061155617	 -2.171252094
H	 -2.200986632	 -1.879981034	 -2.394459010
C	 -2.830698515	 0.101831731	 -2.937701534
H	 -2.133488225	 0.181955550	 -3.760769595
