24
0  1  0  1  0  1  12  12 10.96100 11.96521  7.34296  6.33875  7.23159  6.70350 28.76011 28.75992 28.73167 11.42037 -20.87166 54.61660 -4.54409 -17.78049
C	 -2.568992946	 1.163493014	 0.683565828
H	 -2.295337477	 2.065013023	 1.214688380
C	 -2.324869817	 1.061444500	 -0.684187650
H	 -1.856830144	 1.880537801	 -1.212645002
C	 -2.672759916	 -0.101748103	 -1.367995474
H	 -2.480734950	 -0.181762662	 -2.429452220
C	 -3.262431381	 -1.163393301	 -0.684379889
H	 -3.532395465	 -2.066109913	 -1.215803378
C	 -3.504352666	 -1.062004305	 0.684664690
H	 -3.963128545	 -1.885345753	 1.215526071
C	 -3.159594846	 0.102641583	 1.368123865
H	 -3.348992297	 0.182488484	 2.430168653
C	 1.062252329	 1.163199599	 0.419017769
H	 1.562062024	 2.065777311	 0.744144526
C	 0.587484151	 1.061718504	 -0.887693521
H	 0.719893651	 1.884852839	 -1.576980445
C	 -0.053263854	 -0.102739101	 -1.307063060
H	 -0.420110030	 -0.182626723	 -2.321578823
C	 -0.223149537	 -1.163304897	 -0.418694778
H	 -0.726086639	 -2.064618316	 -0.741734736
C	 0.249063333	 -1.061155617	 0.887943510
H	 0.107361609	 -1.879981034	 1.579791928
C	 0.892679377	 0.101831731	 1.306066702
H	 1.256872081	 0.181955550	 2.321402556
