24
0  1  0  1  0  1  12  12 -2.06385 -1.86041 -3.14940 -3.35285 -3.19318 -3.28665  2.98144  2.98321  2.98045 -2.21567 -1.84954  5.53075 -0.63728 -5.25960
C	 -3.402564164	 1.163493204	 0.683565874
H	 -3.128908695	 2.065013213	 1.214688426
C	 -3.158441035	 1.061444690	 -0.684187604
H	 -2.690401362	 1.880537991	 -1.212644956
C	 -3.506331134	 -0.101747913	 -1.367995428
H	 -3.314306168	 -0.181762472	 -2.429452174
C	 -4.096002599	 -1.163393111	 -0.684379843
H	 -4.365966683	 -2.066109723	 -1.215803332
C	 -4.337923884	 -1.062004115	 0.684664736
H	 -4.796699763	 -1.885345563	 1.215526117
C	 -3.993166064	 0.102641773	 1.368123911
H	 -4.182563515	 0.182488674	 2.430168699
C	 0.604973323	 1.163199599	 0.766596350
H	 0.573310140	 2.065777311	 1.362007621
C	 1.499234407	 1.061718504	 -0.297920598
H	 2.162379144	 1.884852839	 -0.527894070
C	 1.542045079	 -0.102739101	 -1.062509418
H	 2.237218414	 -0.182626723	 -1.887465407
C	 0.687752737	 -1.163304897	 -0.765450594
H	 0.716044996	 -2.064618316	 -1.362526880
C	 -0.207722779	 -1.061155617	 0.296816892
H	 -0.877731947	 -1.879981034	 0.520023808
C	 -0.248020063	 0.101831731	 1.063266332
H	 -0.945230354	 0.181955550	 1.886334393
