24
0  1  0  1  0  1  12  12 51.29145 53.68093 44.67608 42.28659 44.49445 43.18885 84.67837 84.67550 84.60633 50.12811 -67.88514 168.27660 -16.39730 -33.86605
C	 -2.084036719	 1.163492919	 0.683566199
H	 -1.810381250	 2.065012928	 1.214688751
C	 -1.839913590	 1.061444405	 -0.684187279
H	 -1.371873917	 1.880537706	 -1.212644631
C	 -2.187803689	 -0.101748198	 -1.367995103
H	 -1.995778723	 -0.181762757	 -2.429451849
C	 -2.777475154	 -1.163393396	 -0.684379518
H	 -3.047439238	 -2.066110008	 -1.215803007
C	 -3.019396439	 -1.062004400	 0.684665061
H	 -3.478172318	 -1.885345848	 1.215526442
C	 -2.674638619	 0.102641488	 1.368124236
H	 -2.864036070	 0.182488389	 2.430169024
C	 0.604973323	 1.163199599	 0.766596350
H	 0.573310140	 2.065777311	 1.362007621
C	 1.499234407	 1.061718504	 -0.297920598
H	 2.162379144	 1.884852839	 -0.527894070
C	 1.542045079	 -0.102739101	 -1.062509418
H	 2.237218414	 -0.182626723	 -1.887465407
C	 0.687752737	 -1.163304897	 -0.765450594
H	 0.716044996	 -2.064618316	 -1.362526880
C	 -0.207722779	 -1.061155617	 0.296816892
H	 -0.877731947	 -1.879981034	 0.520023808
C	 -0.248020063	 0.101831731	 1.063266332
H	 -0.945230354	 0.181955550	 1.886334393
