24
0  1  0  1  0  1  12  12 10.92180 11.92012  7.32734  6.32902  7.21648  6.69165 28.65738 28.65678 28.62888 11.40412 -20.60043 54.04251 -4.36336 -17.67459
C	 -1.091294171	 1.163493014	 -1.058453131
H	 -1.364949640	 2.065013023	 -1.589575683
C	 -1.335417300	 1.061444500	 0.309300347
H	 -1.803456973	 1.880537801	 0.837757699
C	 -0.987527201	 -0.101748103	 0.993108171
H	 -1.179552167	 -0.181762662	 2.054564917
C	 -0.397855736	 -1.163393301	 0.309492586
H	 -0.127891652	 -2.066109913	 0.840916075
C	 -0.155934451	 -1.062004305	 -1.059551993
H	 0.302841428	 -1.885345753	 -1.590413374
C	 -0.500692271	 0.102641583	 -1.743011168
H	 -0.311294819	 0.182488484	 -2.805055956
C	 -3.683691902	 1.163199599	 -2.641031552
H	 -3.652028718	 2.065777311	 -3.236442823
C	 -4.577952986	 1.061718504	 -1.576514604
H	 -5.241097722	 1.884852839	 -1.346541132
C	 -4.620763657	 -0.102739101	 -0.811925784
H	 -5.315936992	 -0.182626723	 0.013030205
C	 -3.766471315	 -1.163304897	 -1.108984608
H	 -3.794763574	 -2.064618316	 -0.511908322
C	 -2.870995800	 -1.061155617	 -2.171252094
H	 -2.200986632	 -1.879981034	 -2.394459010
C	 -2.830698515	 0.101831731	 -2.937701534
H	 -2.133488225	 0.181955550	 -3.760769595
