24
0  1  0  1  0  1  12  12 -1.05948 -0.79891 -2.56806 -2.82863 -2.61620 -2.74285  5.80584  5.80616  5.79707 -1.18495 -2.35077  8.79462 -0.77788 -6.85092
C	 -3.196365610	 1.163493193	 0.683565897
H	 -2.922710141	 2.065013202	 1.214688449
C	 -2.952242481	 1.061444679	 -0.684187581
H	 -2.484202808	 1.880537980	 -1.212644933
C	 -3.300132580	 -0.101747924	 -1.367995405
H	 -3.108107614	 -0.181762483	 -2.429452151
C	 -3.889804045	 -1.163393122	 -0.684379820
H	 -4.159768129	 -2.066109734	 -1.215803309
C	 -4.131725330	 -1.062004126	 0.684664759
H	 -4.590501209	 -1.885345574	 1.215526140
C	 -3.786967510	 0.102641762	 1.368123934
H	 -3.976364961	 0.182488663	 2.430168722
C	 0.094510082	 1.181149693	 0.684514631
H	 -0.122705518	 2.097947177	 1.215987509
C	 0.354997083	 1.214361658	 -0.684514631
H	 0.341207033	 2.156873628	 -1.215249868
C	 0.638257218	 0.033302150	 -1.368073308
H	 0.842364609	 0.058897326	 -2.430092819
C	 0.656451104	 -1.180829501	 -0.683666649
H	 0.869785392	 -2.098407983	 -1.214896010
C	 0.393745141	 -1.214551031	 0.684021737
H	 0.397302404	 -2.157995394	 1.212329181
C	 0.113910847	 -0.033211319	 1.367935065
H	 -0.092659856	 -0.059955953	 2.429338060
