24
0  1  0  1  0  1  12  12 -1.65521 -1.49084 -2.80209 -2.96646 -2.84010 -2.91574  3.33863  3.33912  3.33298 -1.84807 -0.92662  4.59632 -0.47066 -5.04711
C	 -0.346306240	 1.163493204	 -0.683565874
H	 -0.619961709	 2.065013213	 -1.214688426
C	 -0.590429369	 1.061444690	 0.684187604
H	 -1.058469042	 1.880537991	 1.212644956
C	 -0.242539270	 -0.101747913	 1.367995428
H	 -0.434564236	 -0.181762472	 2.429452174
C	 0.347132195	 -1.163393111	 0.684379843
H	 0.617096279	 -2.066109723	 1.215803332
C	 0.589053480	 -1.062004115	 -0.684664736
H	 1.047829359	 -1.885345563	 -1.215526117
C	 0.244295660	 0.102641773	 -1.368123911
H	 0.433693112	 0.182488674	 -2.430168699
C	 -4.588417406	 -1.040864090	 -0.684514631
H	 -5.273779517	 -0.394351120	 -1.215987509
C	 -4.747423311	 -1.249846467	 0.684514631
H	 -5.556767596	 -0.766647949	 1.215249868
C	 -3.866225841	 -2.085686694	 1.368073308
H	 -3.990445610	 -2.249651292	 2.430092819
C	 -2.823853931	 -2.708508887	 0.683666649
H	 -2.135874800	 -3.352051041	 1.214896010
C	 -2.663297249	 -2.497859615	 -0.684021737
H	 -1.848029094	 -2.972662476	 -1.212329181
C	 -3.546450302	 -1.664846151	 -1.367935065
H	 -3.420003419	 -1.499322992	 -2.429338060
