24
0  1  0  1  0  1  12  12 -2.40104 -2.17457 -3.57096 -3.79744 -3.61834 -3.72297  3.05790  3.06001  3.05743 -2.56207 -2.04601  5.87959 -0.67559 -5.72006
C	 -0.346306240	 1.163493204	 -0.683565874
H	 -0.619961709	 2.065013213	 -1.214688426
C	 -0.590429369	 1.061444690	 0.684187604
H	 -1.058469042	 1.880537991	 1.212644956
C	 -0.242539270	 -0.101747913	 1.367995428
H	 -0.434564236	 -0.181762472	 2.429452174
C	 0.347132195	 -1.163393111	 0.684379843
H	 0.617096279	 -2.066109723	 1.215803332
C	 0.589053480	 -1.062004115	 -0.684664736
H	 1.047829359	 -1.885345563	 -1.215526117
C	 0.244295660	 0.102641773	 -1.368123911
H	 0.433693112	 0.182488674	 -2.430168699
C	 -3.624831355	 3.055584895	 -0.684514631
H	 -3.407615754	 3.972382379	 -1.215987509
C	 -3.885318355	 3.088796860	 0.684514631
H	 -3.871528305	 4.031308830	 1.215249868
C	 -4.168578490	 1.907737352	 1.368073308
H	 -4.372685881	 1.933332528	 2.430092819
C	 -4.186772376	 0.693605701	 0.683666649
H	 -4.400106664	 -0.223972781	 1.214896010
C	 -3.924066414	 0.659884171	 -0.684021737
H	 -3.927623676	 -0.283560192	 -1.212329181
C	 -3.644232119	 1.841223883	 -1.367935065
H	 -3.437661417	 1.814479249	 -2.429338060
