24
0  1  0  1  0  1  12  12 51.21757 53.95139 42.22011 39.48630 42.01644 40.52070 91.47642 91.47909 91.40085 51.25258 -75.45869 180.27319 -14.16415 -39.39778
C	 1.083762253	 1.117513653	 1.122201982
H	 1.728958577	 1.982917119	 1.189398368
C	 1.629352659	 -0.162733949	 1.185894717
H	 2.696071205	 -0.290581926	 1.308404234
C	 0.798001891	 -1.278008710	 1.104311627
H	 1.221561577	 -2.271914728	 1.156411151
C	 -0.578460917	 -1.113556106	 0.961347604
H	 -1.223338768	 -1.979755751	 0.897947719
C	 -1.124408712	 0.167568513	 0.900115181
H	 -2.192665863	 0.295739101	 0.787958084
C	 -0.292710673	 1.283160839	 0.978259766
H	 -0.715783769	 2.277518156	 0.928775064
C	 1.949488213	 1.110116294	 3.600833554
H	 2.594333337	 1.976300037	 3.664584272
C	 2.495441339	 -0.171034805	 3.662353287
H	 3.563648223	 -0.299181855	 3.775097506
C	 1.663791859	 -1.286634905	 3.583702858
H	 2.086873566	 -2.280987340	 3.633356521
C	 0.287390298	 -1.120999876	 3.438986110
H	 -0.357712298	 -1.986410120	 3.371353478
C	 -0.258169573	 0.159232871	 3.375020282
H	 -1.324797607	 0.287062084	 3.251841521
C	 0.573107377	 1.274513633	 3.457091226
H	 0.149582495	 2.268418667	 3.404722296
