24
0  1  0  1  0  1  12  12 -1.82273 -1.73337 -2.51482 -2.60418 -2.54141 -2.57812  1.11601  1.11700  1.11601 -2.00749 -0.39621  1.75497 -0.26427 -3.10198
C	 0.041022642	 1.163493299	 -0.871009417
H	 -0.232632827	 2.065013308	 -1.402131969
C	 -0.203100487	 1.061444785	 0.496744061
H	 -0.671140160	 1.880538086	 1.025201413
C	 0.144789612	 -0.101747818	 1.180551885
H	 -0.047235354	 -0.181762377	 2.242008631
C	 0.734461077	 -1.163393016	 0.496936300
H	 1.004425161	 -2.066109628	 1.028359789
C	 0.976382362	 -1.062004020	 -0.872108279
H	 1.435158241	 -1.885345468	 -1.402969660
C	 0.631624542	 0.102641868	 -1.555567454
H	 0.821021994	 0.182488769	 -2.617612242
C	 -4.516555465	 1.163199599	 1.455417433
H	 -5.016365159	 2.065777311	 1.130290676
C	 -4.041787287	 1.061718504	 2.762128723
H	 -4.174196786	 1.884852839	 3.451415647
C	 -3.401039281	 -0.102739101	 3.181498262
H	 -3.034193105	 -0.182626723	 4.196014025
C	 -3.231153598	 -1.163304897	 2.293129980
H	 -2.728216496	 -2.064618316	 2.616169938
C	 -3.703366469	 -1.061155617	 0.986491692
H	 -3.561664745	 -1.879981034	 0.294643274
C	 -4.346982512	 0.101831731	 0.568368500
H	 -4.711175217	 0.181955550	 -0.446967354
