22
0  1  0  1  0  1  11  11 -2.97146 -2.80558 -3.93149 -4.09738 -3.96564 -4.04206  1.10503  1.10601  1.10539 -3.16200 -1.73380  3.37559 -0.42659 -4.37720
N	 -3.749580850	 -3.082769108	 0.684124564
C	 -3.868248225	 -3.049886426	 -0.651021541
H	 -3.763659356	 -4.000893714	 -1.159372841
C	 -4.115326424	 -1.888700645	 -1.377981753
H	 -4.203321644	 -1.932738766	 -2.454571957
C	 -4.243032214	 -0.684594406	 -0.692338952
H	 -4.428786632	 0.239568380	 -1.221889244
C	 -4.120373467	 -0.699194446	 0.692332860
H	 -4.200079521	 0.209295138	 1.271986066
C	 -3.879012380	 -1.915357352	 1.328299218
H	 -3.781230607	 -1.955561379	 2.406461416
N	 0.384768205	 0.939667829	 0.957225700
C	 -0.092517894	 -0.263056832	 1.304073920
H	 -0.160243162	 -0.457329811	 2.367703127
C	 -0.493335771	 -1.233957481	 0.388380854
H	 -0.883313586	 -2.179587555	 0.736726327
C	 -0.389944804	 -0.952134480	 -0.969016958
H	 -0.692137750	 -1.679303263	 -1.709851033
C	 0.107413962	 0.290907599	 -1.348067262
H	 0.209451698	 0.559774681	 -2.390142863
C	 0.475189959	 1.195494302	 -0.355875034
H	 0.864689076	 2.170618548	 -0.622653238
