22
0  1  0  1  0  1  11  11 -0.63139 -0.12887 -2.71559 -3.21811 -2.77887 -3.03670  9.05747  9.05538  9.04615 -0.75043 -8.51110 20.12918 -2.22352 -10.14500
N	 -3.320282150	 -1.154194756	 2.405403426
C	 -4.062617114	 -1.066383830	 1.292296791
H	 -4.650149348	 -1.942274735	 1.044515165
C	 -4.108597677	 0.062771654	 0.479422334
H	 -4.731958260	 0.068631133	 -0.403819554
C	 -3.340162324	 1.169411141	 0.827478087
H	 -3.344079058	 2.062636800	 0.218267407
C	 -2.562154360	 1.095437762	 1.977176267
H	 -1.938719768	 1.922065848	 2.286562006
C	 -2.589764351	 -0.078470753	 2.727467599
H	 -1.994755777	 -0.162179348	 3.628893708
N	 0.384768205	 0.939667829	 0.957225700
C	 -0.092517894	 -0.263056832	 1.304073920
H	 -0.160243162	 -0.457329811	 2.367703127
C	 -0.493335771	 -1.233957481	 0.388380854
H	 -0.883313586	 -2.179587555	 0.736726327
C	 -0.389944804	 -0.952134480	 -0.969016958
H	 -0.692137750	 -1.679303263	 -1.709851033
C	 0.107413962	 0.290907599	 -1.348067262
H	 0.209451698	 0.559774681	 -2.390142863
C	 0.475189959	 1.195494302	 -0.355875034
H	 0.864689076	 2.170618548	 -0.622653238
