22
0  1  0  1  0  1  11  11 12.00007 13.46331  6.33991  4.87667  6.22393  5.42972 35.89217 35.89059 35.85426 12.67026 -30.62998 74.15430 -6.95438 -23.89969
N	 -0.441476333	 -1.437588781	 3.039575332
C	 -1.373954426	 -0.476959326	 3.113426490
H	 -2.376743673	 -0.807914125	 3.355619356
C	 -1.111951388	 0.874109098	 2.904047109
H	 -1.910509145	 1.598614533	 2.982318202
C	 0.187475945	 1.263350381	 2.593778700
H	 0.429460503	 2.302348863	 2.417907445
C	 1.167035253	 0.280452226	 2.510417236
H	 2.189336492	 0.527197971	 2.261980256
C	 0.804555533	 -1.044685532	 2.743610230
H	 1.548416298	 -1.830240166	 2.687161633
N	 1.572481449	 0.254549158	 -0.256481315
C	 0.969359901	 -0.903160318	 0.044526135
H	 1.613638914	 -1.772181205	 0.102345198
C	 -0.398158115	 -1.028819113	 0.280960430
H	 -0.818424770	 -1.991737105	 0.533563638
C	 -1.195805250	 0.106557792	 0.195397324
H	 -2.260689643	 0.049538649	 0.373442796
C	 -0.587128291	 1.317412387	 -0.120105440
H	 -1.161812234	 2.229500027	 -0.200462573
C	 0.788547332	 1.339705671	 -0.332240527
H	 1.288432016	 2.268794361	 -0.578526896
