22
0  1  0  1  0  1  11  11 -2.85271 -2.63124 -4.08598 -4.30745 -4.12390 -4.23153  2.46274  2.46130  2.45772 -3.10516 -2.97853  6.25245 -0.75219 -5.62689
N	 -3.690338449	 -1.154241472	 2.585543048
C	 -4.432673413	 -1.066430546	 1.472436413
H	 -5.020205647	 -1.942321451	 1.224654787
C	 -4.478653976	 0.062724938	 0.659561956
H	 -5.102014559	 0.068584417	 -0.223679932
C	 -3.710218623	 1.169364425	 1.007617709
H	 -3.714135357	 2.062590084	 0.398407029
C	 -2.932210659	 1.095391046	 2.157315889
H	 -2.308776067	 1.922019132	 2.466701628
C	 -2.959820650	 -0.078517469	 2.907607221
H	 -2.364812076	 -0.162226064	 3.809033330
N	 0.384768205	 0.939667829	 0.957225700
C	 -0.092517894	 -0.263056832	 1.304073920
H	 -0.160243162	 -0.457329811	 2.367703127
C	 -0.493335771	 -1.233957481	 0.388380854
H	 -0.883313586	 -2.179587555	 0.736726327
C	 -0.389944804	 -0.952134480	 -0.969016958
H	 -0.692137750	 -1.679303263	 -1.709851033
C	 0.107413962	 0.290907599	 -1.348067262
H	 0.209451698	 0.559774681	 -2.390142863
C	 0.475189959	 1.195494302	 -0.355875034
H	 0.864689076	 2.170618548	 -0.622653238
