22
0  1  0  1  0  1  11  11 50.54523 53.04001 43.58471 41.08992 43.41959 42.04602 85.34774 85.34596 85.28261 49.84300 -70.69140 172.19405 -16.20320 -35.45645
N	 -3.203215922	 -1.154101325	 -0.860131565
C	 -2.610404781	 -1.066290399	 -2.059565820
H	 -2.689585715	 -1.942181304	 -2.692274473
C	 -1.929425132	 0.062865085	 -2.505823384
H	 -1.476195511	 0.068724564	 -3.487290428
C	 -1.846632580	 1.169504572	 -1.666310970
H	 -1.320999022	 2.062730231	 -1.974308302
C	 -2.453296428	 1.095531193	 -0.417687219
H	 -2.409515042	 1.922159279	 0.276915845
C	 -3.116872777	 -0.078377322	 -0.066452507
H	 -3.600026401	 -0.162085917	 0.899553088
N	 0.384768205	 0.939667829	 0.957225700
C	 -0.092517894	 -0.263056832	 1.304073920
H	 -0.160243162	 -0.457329811	 2.367703127
C	 -0.493335771	 -1.233957481	 0.388380854
H	 -0.883313586	 -2.179587555	 0.736726327
C	 -0.389944804	 -0.952134480	 -0.969016958
H	 -0.692137750	 -1.679303263	 -1.709851033
C	 0.107413962	 0.290907599	 -1.348067262
H	 0.209451698	 0.559774681	 -2.390142863
C	 0.475189959	 1.195494302	 -0.355875034
H	 0.864689076	 2.170618548	 -0.622653238
