22
0  1  0  1  0  1  11  11 -1.96814 -1.65573 -3.67692 -3.98932 -3.71865 -3.87867  5.33892  5.33712  5.32874 -2.16789 -4.13245 10.29348 -0.94442 -7.38450
N	 -0.085391641	 -1.191215494	 -0.684130656
C	 0.033275734	 -1.158332811	 0.651015449
H	 -0.071313133	 -2.109340100	 1.159366749
C	 0.280353934	 0.002852969	 1.377975661
H	 0.368349154	 -0.041185151	 2.454565865
C	 0.408059724	 1.206959208	 0.692332860
H	 0.593814142	 2.131121994	 1.221883152
C	 0.285400977	 1.192359168	 -0.692338952
H	 0.365107031	 2.100848752	 -1.271992158
C	 0.044039890	 -0.023803737	 -1.328305310
H	 -0.053741883	 -0.064007764	 -2.406467508
N	 -3.987636812	 0.939667829	 -0.957225700
C	 -3.510350713	 -0.263056832	 -1.304073920
H	 -3.442625445	 -0.457329811	 -2.367703127
C	 -3.109532835	 -1.233957481	 -0.388380854
H	 -2.719555021	 -2.179587555	 -0.736726327
C	 -3.212923803	 -0.952134480	 0.969016958
H	 -2.910730857	 -1.679303263	 1.709851033
C	 -3.710282569	 0.290907599	 1.348067262
H	 -3.812320305	 0.559774681	 2.390142863
C	 -4.078058566	 1.195494302	 0.355875034
H	 -4.467557683	 2.170618548	 0.622653238
