22
0  1  0  1  0  1  11  11 47.62436 50.03812 40.68440 38.27064 40.51874 39.19071 81.52926 81.52715 81.45997 47.11724 -68.63446 166.91001 -16.51139 -34.64692
N	 -0.098621246	 -1.154101325	 -0.400872448
C	 -0.691432386	 -1.066290399	 0.798561807
H	 -0.612251451	 -1.942181304	 1.431270461
C	 -1.372412035	 0.062865085	 1.244819372
H	 -1.825641656	 0.068724564	 2.226286416
C	 -1.455204588	 1.169504572	 0.405306958
H	 -1.980838145	 2.062730231	 0.713304289
C	 -0.848540739	 1.095531193	 -0.843316793
H	 -0.892322125	 1.922159279	 -1.537919857
C	 -0.184964390	 -0.078377322	 -1.194551505
H	 0.298189234	 -0.162085917	 -2.160557101
N	 -3.987636812	 0.939667829	 -0.957225700
C	 -3.510350713	 -0.263056832	 -1.304073920
H	 -3.442625445	 -0.457329811	 -2.367703127
C	 -3.109532835	 -1.233957481	 -0.388380854
H	 -2.719555021	 -2.179587555	 -0.736726327
C	 -3.212923803	 -0.952134480	 0.969016958
H	 -2.910730857	 -1.679303263	 1.709851033
C	 -3.710282569	 0.290907599	 1.348067262
H	 -3.812320305	 0.559774681	 2.390142863
C	 -4.078058566	 1.195494302	 0.355875034
H	 -4.467557683	 2.170618548	 0.622653238
