22
0  1  0  1  0  1  11  11 -2.79856 -2.64569 -3.72772 -3.88059 -3.75760 -3.82945  1.14444  1.14406  1.14228 -3.02576 -1.83352  3.46596 -0.44558 -4.21262
N	 0.778858273	 -1.154264830	 -0.784106841
C	 1.521193238	 -1.066453904	 0.328999794
H	 2.108725473	 -1.942344809	 0.576781420
C	 1.567173801	 0.062701580	 1.141874252
H	 2.190534384	 0.068561059	 2.025116140
C	 0.798738447	 1.169341067	 0.793818499
H	 0.802655182	 2.062566726	 1.403029178
C	 0.020730484	 1.095367688	 -0.355879681
H	 -0.602704108	 1.921995774	 -0.665265421
C	 0.048340475	 -0.078540827	 -1.106171013
H	 -0.546668099	 -0.162249422	 -2.007597123
N	 -3.987636812	 0.939667829	 -0.957225700
C	 -3.510350713	 -0.263056832	 -1.304073920
H	 -3.442625445	 -0.457329811	 -2.367703127
C	 -3.109532835	 -1.233957481	 -0.388380854
H	 -2.719555021	 -2.179587555	 -0.736726327
C	 -3.212923803	 -0.952134480	 0.969016958
H	 -2.910730857	 -1.679303263	 1.709851033
C	 -3.710282569	 0.290907599	 1.348067262
H	 -3.812320305	 0.559774681	 2.390142863
C	 -4.078058566	 1.195494302	 0.355875034
H	 -4.467557683	 2.170618548	 0.622653238
