22
0  1  0  1  0  1  11  11 -2.79875 -2.65115 -3.76086 -3.90846 -3.78972 -3.85931  1.16694  1.16587  1.16364 -3.06067 -1.84729  3.46685 -0.45281 -4.22741
N	 -3.875366599	 -1.154264830	 2.675612859
C	 -4.617701563	 -1.066453904	 1.562506224
H	 -5.205233797	 -1.942344809	 1.314724598
C	 -4.663682126	 0.062701580	 0.749631767
H	 -5.287042709	 0.068561059	 -0.133610121
C	 -3.895246773	 1.169341067	 1.097687520
H	 -3.899163507	 2.062566726	 0.488476840
C	 -3.117238809	 1.095367688	 2.247385700
H	 -2.493804217	 1.921995774	 2.556771439
C	 -3.144848800	 -0.078540827	 2.997677032
H	 -2.549840226	 -0.162249422	 3.899103141
N	 0.384768205	 0.939667829	 0.957225700
C	 -0.092517894	 -0.263056832	 1.304073920
H	 -0.160243162	 -0.457329811	 2.367703127
C	 -0.493335771	 -1.233957481	 0.388380854
H	 -0.883313586	 -2.179587555	 0.736726327
C	 -0.389944804	 -0.952134480	 -0.969016958
H	 -0.692137750	 -1.679303263	 -1.709851033
C	 0.107413962	 0.290907599	 -1.348067262
H	 0.209451698	 0.559774681	 -2.390142863
C	 0.475189959	 1.195494302	 -0.355875034
H	 0.864689076	 2.170618548	 -0.622653238
