22
0  1  0  1  0  1  11  11 -2.24994 -2.16616 -3.05765 -3.14143 -3.07778 -3.11563  0.78212  0.78094  0.77844 -2.51855 -0.75370  1.62511 -0.22062 -3.16934
N	 -4.802095831	 1.173573219	 0.684121518
C	 -4.832952280	 1.292783521	 -0.651024587
H	 -5.604254316	 0.726703260	 -1.159375887
C	 -3.950874995	 2.087352409	 -1.377984799
H	 -4.033010736	 2.141539444	 -2.454575003
C	 -2.971941298	 2.800001987	 -0.692341998
H	 -2.264470057	 3.422951425	 -1.221892290
C	 -2.923255930	 2.686476376	 0.692329814
H	 -2.176333898	 3.209748635	 1.271983020
C	 -3.855803358	 1.869370090	 1.328296172
H	 -3.841730180	 1.764586577	 2.406458370
N	 0.384768205	 0.939667829	 0.957225700
C	 -0.092517894	 -0.263056832	 1.304073920
H	 -0.160243162	 -0.457329811	 2.367703127
C	 -0.493335771	 -1.233957481	 0.388380854
H	 -0.883313586	 -2.179587555	 0.736726327
C	 -0.389944804	 -0.952134480	 -0.969016958
H	 -0.692137750	 -1.679303263	 -1.709851033
C	 0.107413962	 0.290907599	 -1.348067262
H	 0.209451698	 0.559774681	 -2.390142863
C	 0.475189959	 1.195494302	 -0.355875034
H	 0.864689076	 2.170618548	 -0.622653238
