22
0  1  0  1  0  1  11  11 -2.46803 -2.32008 -3.50825 -3.65620 -3.53703 -3.60663  1.82006  1.82088  1.81919 -2.66841 -1.42981  3.66115 -0.40490 -4.49485
N	 1.316627332	 -1.154264830	 -0.400828800
C	 0.723816192	 -1.066453904	 0.798605455
H	 0.802997127	 -1.942344809	 1.431314109
C	 0.042836543	 0.062701580	 1.244863020
H	 -0.410393078	 0.068561059	 2.226330064
C	 -0.039956010	 1.169341067	 0.405350606
H	 -0.565589567	 2.062566726	 0.713347937
C	 0.566707839	 1.095367688	 -0.843273145
H	 0.522926453	 1.921995774	 -1.537876209
C	 1.230284188	 -0.078540827	 -1.194507857
H	 1.713437812	 -0.162249422	 -2.160513453
N	 -3.987636812	 0.939667829	 -0.957225700
C	 -3.510350713	 -0.263056832	 -1.304073920
H	 -3.442625445	 -0.457329811	 -2.367703127
C	 -3.109532835	 -1.233957481	 -0.388380854
H	 -2.719555021	 -2.179587555	 -0.736726327
C	 -3.212923803	 -0.952134480	 0.969016958
H	 -2.910730857	 -1.679303263	 1.709851033
C	 -3.710282569	 0.290907599	 1.348067262
H	 -3.812320305	 0.559774681	 2.390142863
C	 -4.078058566	 1.195494302	 0.355875034
H	 -4.467557683	 2.170618548	 0.622653238
