22
0  1  0  1  0  1  11  11 11.71986 12.89851  8.12436  6.94571  8.02156  7.38821 29.78294 29.78014 29.75318 11.59581 -25.79411 63.54633 -7.24831 -18.90809
N	 -0.266844447	 -1.154148041	 -0.784116362
C	 0.475490518	 -1.066337115	 0.328990273
H	 1.063022753	 -1.942228020	 0.576771899
C	 0.521471081	 0.062818369	 1.141864731
H	 1.144831664	 0.068677848	 2.025106619
C	 -0.246964273	 1.169457856	 0.793808978
H	 -0.243047538	 2.062683515	 1.403019657
C	 -1.024972236	 1.095484477	 -0.355889202
H	 -1.648406828	 1.922112563	 -0.665274942
C	 -0.997362245	 -0.078424038	 -1.106180534
H	 -1.592370819	 -0.162132633	 -2.007606644
N	 -3.987636812	 0.939667829	 -0.957225700
C	 -3.510350713	 -0.263056832	 -1.304073920
H	 -3.442625445	 -0.457329811	 -2.367703127
C	 -3.109532835	 -1.233957481	 -0.388380854
H	 -2.719555021	 -2.179587555	 -0.736726327
C	 -3.212923803	 -0.952134480	 0.969016958
H	 -2.910730857	 -1.679303263	 1.709851033
C	 -3.710282569	 0.290907599	 1.348067262
H	 -3.812320305	 0.559774681	 2.390142863
C	 -4.078058566	 1.195494302	 0.355875034
H	 -4.467557683	 2.170618548	 0.622653238
