22
0  1  0  1  0  1  11  11 -2.33702 -1.99576 -3.89063 -4.23189 -3.94131 -4.11157  4.83476  4.83377  4.82838 -2.49033 -4.92826 11.25172 -1.27287 -7.54092
N	 0.360577185	 -1.154218114	 -0.784110649
C	 1.102912150	 -1.066407188	 0.328995986
H	 1.690444385	 -1.942298093	 0.576777612
C	 1.148892713	 0.062748296	 1.141870444
H	 1.772253296	 0.068607775	 2.025112332
C	 0.380457359	 1.169387783	 0.793814691
H	 0.384374094	 2.062613442	 1.403025370
C	 -0.397550604	 1.095414404	 -0.355883489
H	 -1.020985196	 1.922042490	 -0.665269229
C	 -0.369940613	 -0.078494111	 -1.106174821
H	 -0.964949187	 -0.162202706	 -2.007600931
N	 -3.987636812	 0.939667829	 -0.957225700
C	 -3.510350713	 -0.263056832	 -1.304073920
H	 -3.442625445	 -0.457329811	 -2.367703127
C	 -3.109532835	 -1.233957481	 -0.388380854
H	 -2.719555021	 -2.179587555	 -0.736726327
C	 -3.212923803	 -0.952134480	 0.969016958
H	 -2.910730857	 -1.679303263	 1.709851033
C	 -3.710282569	 0.290907599	 1.348067262
H	 -3.812320305	 0.559774681	 2.390142863
C	 -4.078058566	 1.195494302	 0.355875034
H	 -4.467557683	 2.170618548	 0.622653238
