22
0  1  0  1  0  1  11  11 10.41379 11.50013  6.49796  5.41162  6.39903  5.81557 29.00153 28.99977 28.96988 10.94298 -23.00595 58.02575 -5.37334 -18.70348
N	 0.305735491	 -1.154148041	 -0.400859977
C	 -0.287075649	 -1.066337115	 0.798574278
H	 -0.207894714	 -1.942228020	 1.431282932
C	 -0.968055298	 0.062818369	 1.244831843
H	 -1.421284919	 0.068677848	 2.226298887
C	 -1.050847851	 1.169457856	 0.405319429
H	 -1.576481408	 2.062683515	 0.713316760
C	 -0.444184002	 1.095484477	 -0.843304322
H	 -0.487965388	 1.922112563	 -1.537907386
C	 0.219392347	 -0.078424038	 -1.194539034
H	 0.702545971	 -0.162132633	 -2.160544630
N	 -3.987636812	 0.939667829	 -0.957225700
C	 -3.510350713	 -0.263056832	 -1.304073920
H	 -3.442625445	 -0.457329811	 -2.367703127
C	 -3.109532835	 -1.233957481	 -0.388380854
H	 -2.719555021	 -2.179587555	 -0.736726327
C	 -3.212923803	 -0.952134480	 0.969016958
H	 -2.910730857	 -1.679303263	 1.709851033
C	 -3.710282569	 0.290907599	 1.348067262
H	 -3.812320305	 0.559774681	 2.390142863
C	 -4.078058566	 1.195494302	 0.355875034
H	 -4.467557683	 2.170618548	 0.622653238
