22
0  1  0  1  0  1  11  11 57.61204 60.29074 50.55806 47.87935 50.39167 48.91180 93.55338 93.55077 93.48574 57.11827 -73.00661 183.47390 -17.71701 -35.63200
N	 0.344193341	 -0.807848780	 -0.684145885
C	 0.375049790	 -0.688638477	 0.651000220
H	 1.146351828	 -1.254718738	 1.159351520
C	 -0.507027494	 0.105930410	 1.377960432
H	 -0.424891753	 0.160117446	 2.454550636
C	 -1.485961191	 0.818579988	 0.692317631
H	 -2.193432432	 1.441529426	 1.221867923
C	 -1.534646559	 0.705054377	 -0.692354181
H	 -2.281568591	 1.228326637	 -1.272007387
C	 -0.602099131	 -0.112051908	 -1.328320539
H	 -0.616172309	 -0.216835421	 -2.406482737
N	 -3.987636812	 0.939667829	 -0.957225700
C	 -3.510350713	 -0.263056832	 -1.304073920
H	 -3.442625445	 -0.457329811	 -2.367703127
C	 -3.109532835	 -1.233957481	 -0.388380854
H	 -2.719555021	 -2.179587555	 -0.736726327
C	 -3.212923803	 -0.952134480	 0.969016958
H	 -2.910730857	 -1.679303263	 1.709851033
C	 -3.710282569	 0.290907599	 1.348067262
H	 -3.812320305	 0.559774681	 2.390142863
C	 -4.078058566	 1.195494302	 0.355875034
H	 -4.467557683	 2.170618548	 0.622653238
