22
0  1  0  1  0  1  11  11 -2.34065 -2.00790 -3.93656 -4.26931 -3.98575 -4.15212  4.81975  4.81800  4.81223 -2.54587 -4.97176 11.23797 -1.27894 -7.53314
N	 -3.505310299	 -1.154218114	 2.495473237
C	 -4.247645263	 -1.066407188	 1.382366602
H	 -4.835177497	 -1.942298093	 1.134584976
C	 -4.293625826	 0.062748296	 0.569492145
H	 -4.916986409	 0.068607775	 -0.313749743
C	 -3.525190473	 1.169387783	 0.917547898
H	 -3.529107207	 2.062613442	 0.308337218
C	 -2.747182509	 1.095414404	 2.067246078
H	 -2.123747917	 1.922042490	 2.376631817
C	 -2.774792500	 -0.078494111	 2.817537410
H	 -2.179783926	 -0.162202706	 3.718963519
N	 0.384768205	 0.939667829	 0.957225700
C	 -0.092517894	 -0.263056832	 1.304073920
H	 -0.160243162	 -0.457329811	 2.367703127
C	 -0.493335771	 -1.233957481	 0.388380854
H	 -0.883313586	 -2.179587555	 0.736726327
C	 -0.389944804	 -0.952134480	 -0.969016958
H	 -0.692137750	 -1.679303263	 -1.709851033
C	 0.107413962	 0.290907599	 -1.348067262
H	 0.209451698	 0.559774681	 -2.390142863
C	 0.475189959	 1.195494302	 -0.355875034
H	 0.864689076	 2.170618548	 -0.622653238
