22
0  1  0  1  0  1  11  11 -2.63215 -2.52230 -3.38088 -3.49072 -3.40671 -3.45495  0.39652  0.39727  0.39805 -2.83359 -1.11356  1.84137 -0.26767 -3.29373
N	 -3.939809897	 -3.172864622	 0.684121518
C	 -4.058477272	 -3.139981940	 -0.651024587
H	 -3.953888403	 -4.090989228	 -1.159375887
C	 -4.305555471	 -1.978796159	 -1.377984799
H	 -4.393550691	 -2.022834280	 -2.454575003
C	 -4.433261261	 -0.774689920	 -0.692341998
H	 -4.619015679	 0.149472866	 -1.221892290
C	 -4.310602514	 -0.789289960	 0.692329814
H	 -4.390308568	 0.119199624	 1.271983020
C	 -4.069241427	 -2.005452866	 1.328296172
H	 -3.971459654	 -2.045656893	 2.406458370
N	 0.384768205	 0.939667829	 0.957225700
C	 -0.092517894	 -0.263056832	 1.304073920
H	 -0.160243162	 -0.457329811	 2.367703127
C	 -0.493335771	 -1.233957481	 0.388380854
H	 -0.883313586	 -2.179587555	 0.736726327
C	 -0.389944804	 -0.952134480	 -0.969016958
H	 -0.692137750	 -1.679303263	 -1.709851033
C	 0.107413962	 0.290907599	 -1.348067262
H	 0.209451698	 0.559774681	 -2.390142863
C	 0.475189959	 1.195494302	 -0.355875034
H	 0.864689076	 2.170618548	 -0.622653238
