22
0  1  0  1  0  1  11  11 -0.85208 -0.29167 -3.01902 -3.57943 -3.09038 -3.37852  9.41599  9.41359  9.40076 -0.64796 -8.22073 20.12121 -2.00276 -10.54567
N	 -3.178893709	 -2.812482568	 0.684133702
C	 -3.297561084	 -2.779599886	 -0.651012403
H	 -3.192972215	 -3.730607174	 -1.159363703
C	 -3.544639283	 -1.618414105	 -1.377972615
H	 -3.632634503	 -1.662452226	 -2.454562819
C	 -3.672345073	 -0.414307866	 -0.692329814
H	 -3.858099491	 0.509854920	 -1.221880106
C	 -3.549686326	 -0.428907906	 0.692341998
H	 -3.629392380	 0.479581678	 1.271995204
C	 -3.308325239	 -1.645070812	 1.328308356
H	 -3.210543466	 -1.685274839	 2.406470554
N	 0.384768205	 0.939667829	 0.957225700
C	 -0.092517894	 -0.263056832	 1.304073920
H	 -0.160243162	 -0.457329811	 2.367703127
C	 -0.493335771	 -1.233957481	 0.388380854
H	 -0.883313586	 -2.179587555	 0.736726327
C	 -0.389944804	 -0.952134480	 -0.969016958
H	 -0.692137750	 -1.679303263	 -1.709851033
C	 0.107413962	 0.290907599	 -1.348067262
H	 0.209451698	 0.559774681	 -2.390142863
C	 0.475189959	 1.195494302	 -0.355875034
H	 0.864689076	 2.170618548	 -0.622653238
