22
0  1  0  1  0  1  11  11 -2.85101 -2.62288 -4.04694 -4.27508 -4.08597 -4.19663  2.45498  2.45430  2.45114 -3.06067 -2.95371  6.25817 -0.74464 -5.62048
N	 0.569717729	 -1.154241472	 -0.784108745
C	 1.312052694	 -1.066430546	 0.328997890
H	 1.899584929	 -1.942321451	 0.576779516
C	 1.358033257	 0.062724938	 1.141872348
H	 1.981393840	 0.068584417	 2.025114236
C	 0.589597903	 1.169364425	 0.793816595
H	 0.593514638	 2.062590084	 1.403027274
C	 -0.188410060	 1.095391046	 -0.355881585
H	 -0.811844652	 1.922019132	 -0.665267325
C	 -0.160800069	 -0.078517469	 -1.106172917
H	 -0.755808643	 -0.162226064	 -2.007599027
N	 -3.987636812	 0.939667829	 -0.957225700
C	 -3.510350713	 -0.263056832	 -1.304073920
H	 -3.442625445	 -0.457329811	 -2.367703127
C	 -3.109532835	 -1.233957481	 -0.388380854
H	 -2.719555021	 -2.179587555	 -0.736726327
C	 -3.212923803	 -0.952134480	 0.969016958
H	 -2.910730857	 -1.679303263	 1.709851033
C	 -3.710282569	 0.290907599	 1.348067262
H	 -3.812320305	 0.559774681	 2.390142863
C	 -4.078058566	 1.195494302	 0.355875034
H	 -4.467557683	 2.170618548	 0.622653238
