22
0  1  0  1  0  1  11  11 -0.63078 -0.11833 -2.66808 -3.18053 -2.73275 -2.99538  9.09877  9.09736  9.08846 -0.68586 -8.43232 20.14253 -2.22280 -10.17328
N	 0.151436641	 -1.154194756	 -0.784112553
C	 0.893771606	 -1.066383830	 0.328994082
H	 1.481303841	 -1.942274735	 0.576775708
C	 0.939752169	 0.062771654	 1.141868540
H	 1.563112752	 0.068631133	 2.025110428
C	 0.171316815	 1.169411141	 0.793812787
H	 0.175233550	 2.062636800	 1.403023466
C	 -0.606691148	 1.095437762	 -0.355885393
H	 -1.230125740	 1.922065848	 -0.665271133
C	 -0.579081157	 -0.078470753	 -1.106176725
H	 -1.174089731	 -0.162179348	 -2.007602835
N	 -3.987636812	 0.939667829	 -0.957225700
C	 -3.510350713	 -0.263056832	 -1.304073920
H	 -3.442625445	 -0.457329811	 -2.367703127
C	 -3.109532835	 -1.233957481	 -0.388380854
H	 -2.719555021	 -2.179587555	 -0.736726327
C	 -3.212923803	 -0.952134480	 0.969016958
H	 -2.910730857	 -1.679303263	 1.709851033
C	 -3.710282569	 0.290907599	 1.348067262
H	 -3.812320305	 0.559774681	 2.390142863
C	 -4.078058566	 1.195494302	 0.355875034
H	 -4.467557683	 2.170618548	 0.622653238
