22
0  1  0  1  0  1  11  11 -2.41055 -2.30571 -3.07444 -3.17928 -3.09801 -3.14451  0.41618  0.41788  0.41904 -2.58107 -1.02565  1.76672 -0.24030 -3.08184
N	 2.080368857	 -0.808004516	 -0.684121518
C	 2.111225306	 -0.688794213	 0.651024587
H	 2.882527344	 -1.254874474	 1.159375887
C	 1.229148022	 0.105774674	 1.377984799
H	 1.311283763	 0.159961710	 2.454575003
C	 0.250214325	 0.818424252	 0.692341998
H	 -0.457256916	 1.441373690	 1.221892290
C	 0.201528957	 0.704898641	 -0.692329814
H	 -0.545393075	 1.228170901	 -1.271983020
C	 1.134076385	 -0.112207644	 -1.328296172
H	 1.120003207	 -0.216991157	 -2.406458370
N	 -3.987636812	 0.939667829	 -0.957225700
C	 -3.510350713	 -0.263056832	 -1.304073920
H	 -3.442625445	 -0.457329811	 -2.367703127
C	 -3.109532835	 -1.233957481	 -0.388380854
H	 -2.719555021	 -2.179587555	 -0.736726327
C	 -3.212923803	 -0.952134480	 0.969016958
H	 -2.910730857	 -1.679303263	 1.709851033
C	 -3.710282569	 0.290907599	 1.348067262
H	 -3.812320305	 0.559774681	 2.390142863
C	 -4.078058566	 1.195494302	 0.355875034
H	 -4.467557683	 2.170618548	 0.622653238
