22
0  1  0  1  0  1  11  11 -3.02385 -2.53067 -5.72656 -6.21974 -5.78697 -6.03989  7.65145  7.65112  7.64466 -3.12753 -7.04920 16.68095 -1.71042 -11.04885
N	 -0.502759044	 -1.489587974	 3.574022294
C	 -1.435237137	 -0.528958519	 3.647873452
H	 -2.438026384	 -0.859913318	 3.890066318
C	 -1.173234099	 0.822109905	 3.438494071
H	 -1.971791856	 1.546615340	 3.516765164
C	 0.126193234	 1.211351188	 3.128225662
H	 0.368177792	 2.250349670	 2.952354407
C	 1.105752542	 0.228453033	 3.044864198
H	 2.128053781	 0.475198778	 2.796427218
C	 0.743272822	 -1.096684725	 3.278057192
H	 1.487133587	 -1.882239359	 3.221608595
N	 1.572481449	 0.254549158	 -0.256481315
C	 0.969359901	 -0.903160318	 0.044526135
H	 1.613638914	 -1.772181205	 0.102345198
C	 -0.398158115	 -1.028819113	 0.280960430
H	 -0.818424770	 -1.991737105	 0.533563638
C	 -1.195805250	 0.106557792	 0.195397324
H	 -2.260689643	 0.049538649	 0.373442796
C	 -0.587128291	 1.317412387	 -0.120105440
H	 -1.161812234	 2.229500027	 -0.200462573
C	 0.788547332	 1.339705671	 -0.332240527
H	 1.288432016	 2.268794361	 -0.578526896
