22
0  1  0  1  0  1  11  11 -3.07752 -2.82766 -4.32170 -4.57156 -4.36636 -4.48625  2.44196  2.44243  2.43945 -3.21702 -2.83047  6.15831 -0.70006 -5.84481
N	 -3.559351803	 -2.992673595	 0.684127610
C	 -3.678019178	 -2.959790913	 -0.651018495
H	 -3.573430309	 -3.910798201	 -1.159369795
C	 -3.925097377	 -1.798605132	 -1.377978707
H	 -4.013092597	 -1.842643253	 -2.454568911
C	 -4.052803167	 -0.594498893	 -0.692335906
H	 -4.238557585	 0.329663893	 -1.221886198
C	 -3.930144420	 -0.609098933	 0.692335906
H	 -4.009850474	 0.299390651	 1.271989112
C	 -3.688783333	 -1.825261839	 1.328302264
H	 -3.591001560	 -1.865465866	 2.406464462
N	 0.384768205	 0.939667829	 0.957225700
C	 -0.092517894	 -0.263056832	 1.304073920
H	 -0.160243162	 -0.457329811	 2.367703127
C	 -0.493335771	 -1.233957481	 0.388380854
H	 -0.883313586	 -2.179587555	 0.736726327
C	 -0.389944804	 -0.952134480	 -0.969016958
H	 -0.692137750	 -1.679303263	 -1.709851033
C	 0.107413962	 0.290907599	 -1.348067262
H	 0.209451698	 0.559774681	 -2.390142863
C	 0.475189959	 1.195494302	 -0.355875034
H	 0.864689076	 2.170618548	 -0.622653238
