22
0  1  0  1  0  1  11  11 -2.75535 -2.51595 -3.86874 -4.10813 -3.91069 -4.02544  2.47697  2.47843  2.47699 -2.87344 -2.62369  5.92070 -0.64137 -5.52907
N	 1.646324978	 -0.807965582	 -0.684127610
C	 1.677181427	 -0.688755279	 0.651018495
H	 2.448483465	 -1.254835540	 1.159369795
C	 0.795104143	 0.105813608	 1.377978707
H	 0.877239884	 0.160000644	 2.454568911
C	 -0.183829554	 0.818463186	 0.692335906
H	 -0.891300795	 1.441412624	 1.221886198
C	 -0.232514922	 0.704937575	 -0.692335906
H	 -0.979436954	 1.228209835	 -1.271989112
C	 0.700032506	 -0.112168710	 -1.328302264
H	 0.685959328	 -0.216952223	 -2.406464462
N	 -3.987636812	 0.939667829	 -0.957225700
C	 -3.510350713	 -0.263056832	 -1.304073920
H	 -3.442625445	 -0.457329811	 -2.367703127
C	 -3.109532835	 -1.233957481	 -0.388380854
H	 -2.719555021	 -2.179587555	 -0.736726327
C	 -3.212923803	 -0.952134480	 0.969016958
H	 -2.910730857	 -1.679303263	 1.709851033
C	 -3.710282569	 0.290907599	 1.348067262
H	 -3.812320305	 0.559774681	 2.390142863
C	 -4.078058566	 1.195494302	 0.355875034
H	 -4.467557683	 2.170618548	 0.622653238
