22
0  1  0  1  0  1  11  11 -0.71355 -0.25452 -2.89184 -3.35087 -2.94615 -3.18564  8.97360  8.97168  8.95862 -0.78644 -6.78171 17.22578 -1.48413 -9.74638
N	 -4.094215643	 0.813364225	 0.684133702
C	 -4.125072092	 0.932574527	 -0.651012403
H	 -4.896374128	 0.366494266	 -1.159363703
C	 -3.242994807	 1.727143415	 -1.377972615
H	 -3.325130548	 1.781330450	 -2.454562819
C	 -2.264061110	 2.439792993	 -0.692329814
H	 -1.556589869	 3.062742431	 -1.221880106
C	 -2.215375742	 2.326267382	 0.692341998
H	 -1.468453710	 2.849539641	 1.271995204
C	 -3.147923170	 1.509161096	 1.328308356
H	 -3.133849992	 1.404377583	 2.406470554
N	 0.384768205	 0.939667829	 0.957225700
C	 -0.092517894	 -0.263056832	 1.304073920
H	 -0.160243162	 -0.457329811	 2.367703127
C	 -0.493335771	 -1.233957481	 0.388380854
H	 -0.883313586	 -2.179587555	 0.736726327
C	 -0.389944804	 -0.952134480	 -0.969016958
H	 -0.692137750	 -1.679303263	 -1.709851033
C	 0.107413962	 0.290907599	 -1.348067262
H	 0.209451698	 0.559774681	 -2.390142863
C	 0.475189959	 1.195494302	 -0.355875034
H	 0.864689076	 2.170618548	 -0.622653238
