22
0  1  0  1  0  1  11  11 -0.26168  0.21085 -2.48324 -2.95577 -2.53580 -2.78442  9.61409  9.61179  9.59801 -0.30053 -7.28972 18.41518 -1.56707 -9.85891
N	 -0.283428804	 -1.191191696	 -0.684133702
C	 -0.164761429	 -1.158309013	 0.651012403
H	 -0.269350296	 -2.109316302	 1.159363703
C	 0.082316771	 0.002876767	 1.377972615
H	 0.170311991	 -0.041161353	 2.454562819
C	 0.210022561	 1.206983006	 0.692329814
H	 0.395776979	 2.131145792	 1.221880106
C	 0.087363814	 1.192382966	 -0.692341998
H	 0.167069868	 2.100872550	 -1.271995204
C	 -0.153997273	 -0.023779939	 -1.328308356
H	 -0.251779046	 -0.063983966	 -2.406470554
N	 -3.987636812	 0.939667829	 -0.957225700
C	 -3.510350713	 -0.263056832	 -1.304073920
H	 -3.442625445	 -0.457329811	 -2.367703127
C	 -3.109532835	 -1.233957481	 -0.388380854
H	 -2.719555021	 -2.179587555	 -0.736726327
C	 -3.212923803	 -0.952134480	 0.969016958
H	 -2.910730857	 -1.679303263	 1.709851033
C	 -3.710282569	 0.290907599	 1.348067262
H	 -3.812320305	 0.559774681	 2.390142863
C	 -4.078058566	 1.195494302	 0.355875034
H	 -4.467557683	 2.170618548	 0.622653238
