22
0  1  0  1  0  1  11  11 10.44897 11.50288  6.71929  5.66538  6.63253  6.05986 28.31264 28.30998 28.27789 10.83496 -21.37420 54.13245 -4.25403 -17.66926
N	 -3.740275549	 0.633259729	 0.684139793
C	 -3.771131998	 0.752470031	 -0.651006312
H	 -4.542434034	 0.186389770	 -1.159357612
C	 -2.889054713	 1.547038919	 -1.377966524
H	 -2.971190454	 1.601225954	 -2.454556728
C	 -1.910121016	 2.259688497	 -0.692323723
H	 -1.202649775	 2.882637935	 -1.221874015
C	 -1.861435648	 2.146162886	 0.692348089
H	 -1.114513616	 2.669435145	 1.272001295
C	 -2.793983076	 1.329056600	 1.328314447
H	 -2.779909898	 1.224273087	 2.406476645
N	 0.384768205	 0.939667829	 0.957225700
C	 -0.092517894	 -0.263056832	 1.304073920
H	 -0.160243162	 -0.457329811	 2.367703127
C	 -0.493335771	 -1.233957481	 0.388380854
H	 -0.883313586	 -2.179587555	 0.736726327
C	 -0.389944804	 -0.952134480	 -0.969016958
H	 -0.692137750	 -1.679303263	 -1.709851033
C	 0.107413962	 0.290907599	 -1.348067262
H	 0.209451698	 0.559774681	 -2.390142863
C	 0.475189959	 1.195494302	 -0.355875034
H	 0.864689076	 2.170618548	 -0.622653238
