22
0  1  0  1  0  1  11  11 53.86557 56.90183 44.37076 41.33449 44.18978 42.50823 94.77927 94.77969 94.70659 53.32219 -82.29837 195.24369 -18.63397 -40.98916
N	 -0.400621193	 -1.402922651	 2.683277357
C	 -1.333099286	 -0.442293196	 2.757128515
H	 -2.335888533	 -0.773247995	 2.999321381
C	 -1.071096248	 0.908775228	 2.547749134
H	 -1.869654005	 1.633280663	 2.626020227
C	 0.228331085	 1.298016511	 2.237480725
H	 0.470315643	 2.337014993	 2.061609470
C	 1.207890393	 0.315118356	 2.154119261
H	 2.230191632	 0.561864101	 1.905682281
C	 0.845410673	 -1.010019402	 2.387312255
H	 1.589271438	 -1.795574036	 2.330863658
N	 1.572481449	 0.254549158	 -0.256481315
C	 0.969359901	 -0.903160318	 0.044526135
H	 1.613638914	 -1.772181205	 0.102345198
C	 -0.398158115	 -1.028819113	 0.280960430
H	 -0.818424770	 -1.991737105	 0.533563638
C	 -1.195805250	 0.106557792	 0.195397324
H	 -2.260689643	 0.049538649	 0.373442796
C	 -0.587128291	 1.317412387	 -0.120105440
H	 -1.161812234	 2.229500027	 -0.200462573
C	 0.788547332	 1.339705671	 -0.332240527
H	 1.288432016	 2.268794361	 -0.578526896
