22
0  1  0  1  0  1  11  11 -0.32262  0.18686 -2.59098 -3.10046 -2.65532 -2.91682 10.17240 10.17186 10.16200 -0.26542 -7.88703 20.23529 -1.88388 -10.72979
N	 -3.925920413	 -1.154194756	 -1.220443368
C	 -3.333109272	 -1.066383830	 -2.419877623
H	 -3.412290206	 -1.942274735	 -3.052586276
C	 -2.652129623	 0.062771654	 -2.866135187
H	 -2.198900002	 0.068631133	 -3.847602231
C	 -2.569337071	 1.169411141	 -2.026622773
H	 -2.043703513	 2.062636800	 -2.334620105
C	 -3.176000919	 1.095437762	 -0.777999022
H	 -3.132219533	 1.922065848	 -0.083395958
C	 -3.839577268	 -0.078470753	 -0.426764310
H	 -4.322730892	 -0.162179348	 0.539241285
N	 0.384768205	 0.939667829	 0.957225700
C	 -0.092517894	 -0.263056832	 1.304073920
H	 -0.160243162	 -0.457329811	 2.367703127
C	 -0.493335771	 -1.233957481	 0.388380854
H	 -0.883313586	 -2.179587555	 0.736726327
C	 -0.389944804	 -0.952134480	 -0.969016958
H	 -0.692137750	 -1.679303263	 -1.709851033
C	 0.107413962	 0.290907599	 -1.348067262
H	 0.209451698	 0.559774681	 -2.390142863
C	 0.475189959	 1.195494302	 -0.355875034
H	 0.864689076	 2.170618548	 -0.622653238
