22
0  1  0  1  0  1  11  11 -2.46450 -2.24424 -3.80190 -4.02216 -3.83905 -3.94618  3.24416  3.24511  3.24209 -2.63090 -2.49100  6.44455 -0.65937 -5.92508
N	 1.114448964	 -1.154241472	 -0.400835035
C	 0.521637824	 -1.066430546	 0.798599220
H	 0.600818759	 -1.942321451	 1.431307874
C	 -0.159341825	 0.062724938	 1.244856785
H	 -0.612571446	 0.068584417	 2.226323829
C	 -0.242134378	 1.169364425	 0.405344371
H	 -0.767767935	 2.062590084	 0.713341702
C	 0.364529471	 1.095391046	 -0.843279380
H	 0.320748085	 1.922019132	 -1.537882444
C	 1.028105820	 -0.078517469	 -1.194514092
H	 1.511259444	 -0.162226064	 -2.160519688
N	 -3.987636812	 0.939667829	 -0.957225700
C	 -3.510350713	 -0.263056832	 -1.304073920
H	 -3.442625445	 -0.457329811	 -2.367703127
C	 -3.109532835	 -1.233957481	 -0.388380854
H	 -2.719555021	 -2.179587555	 -0.736726327
C	 -3.212923803	 -0.952134480	 0.969016958
H	 -2.910730857	 -1.679303263	 1.709851033
C	 -3.710282569	 0.290907599	 1.348067262
H	 -3.812320305	 0.559774681	 2.390142863
C	 -4.078058566	 1.195494302	 0.355875034
H	 -4.467557683	 2.170618548	 0.622653238
