22
0  1  0  1  0  1  11  11 -2.70135 -2.54265 -3.55644 -3.71514 -3.58793 -3.66139  1.13438  1.13640  1.13659 -2.86233 -1.60143  3.24464 -0.38776 -4.11778
N	 1.863346917	 -0.807985049	 -0.684124564
C	 1.894203366	 -0.688774746	 0.651021541
H	 2.665505404	 -1.254855007	 1.159372841
C	 1.012126082	 0.105794141	 1.377981753
H	 1.094261823	 0.159981177	 2.454571957
C	 0.033192385	 0.818443719	 0.692338952
H	 -0.674278856	 1.441393157	 1.221889244
C	 -0.015492983	 0.704918108	 -0.692332860
H	 -0.762415015	 1.228190368	 -1.271986066
C	 0.917054445	 -0.112188177	 -1.328299218
H	 0.902981267	 -0.216971690	 -2.406461416
N	 -3.987636812	 0.939667829	 -0.957225700
C	 -3.510350713	 -0.263056832	 -1.304073920
H	 -3.442625445	 -0.457329811	 -2.367703127
C	 -3.109532835	 -1.233957481	 -0.388380854
H	 -2.719555021	 -2.179587555	 -0.736726327
C	 -3.212923803	 -0.952134480	 0.969016958
H	 -2.910730857	 -1.679303263	 1.709851033
C	 -3.710282569	 0.290907599	 1.348067262
H	 -3.812320305	 0.559774681	 2.390142863
C	 -4.078058566	 1.195494302	 0.355875034
H	 -4.467557683	 2.170618548	 0.622653238
