22
0  1  0  1  0  1  11  11 11.08594 12.21416  7.15451  6.02628  7.05336  6.44708 30.14773 30.14606 30.11643 11.55293 -23.75041 59.90057 -5.39007 -19.20715
N	 -3.564568168	 -1.154148041	 -1.040287467
C	 -2.971757027	 -1.066337115	 -2.239721722
H	 -3.050937961	 -1.942228020	 -2.872430375
C	 -2.290777378	 0.062818369	 -2.685979286
H	 -1.837547757	 0.068677848	 -3.667446330
C	 -2.207984826	 1.169457856	 -1.846466872
H	 -1.682351268	 2.062683515	 -2.154464204
C	 -2.814648674	 1.095484477	 -0.597843121
H	 -2.770867288	 1.922112563	 0.096759943
C	 -3.478225023	 -0.078424038	 -0.246608409
H	 -3.961378647	 -0.162132633	 0.719397186
N	 0.384768205	 0.939667829	 0.957225700
C	 -0.092517894	 -0.263056832	 1.304073920
H	 -0.160243162	 -0.457329811	 2.367703127
C	 -0.493335771	 -1.233957481	 0.388380854
H	 -0.883313586	 -2.179587555	 0.736726327
C	 -0.389944804	 -0.952134480	 -0.969016958
H	 -0.692137750	 -1.679303263	 -1.709851033
C	 0.107413962	 0.290907599	 -1.348067262
H	 0.209451698	 0.559774681	 -2.390142863
C	 0.475189959	 1.195494302	 -0.355875034
H	 0.864689076	 2.170618548	 -0.622653238
