22
0  1  0  1  0  1  11  11 -2.48780 -2.35316 -3.52265 -3.65729 -3.54844 -3.61281  1.58666  1.58526  1.58184 -2.78109 -1.37171  3.16034 -0.36506 -4.20466
N	 0.310682685	 -1.191263090	 -0.684124564
C	 0.429350060	 -1.158380407	 0.651021541
H	 0.324761193	 -2.109387696	 1.159372841
C	 0.676428260	 0.002805373	 1.377981753
H	 0.764423480	 -0.041232747	 2.454571957
C	 0.804134050	 1.206911612	 0.692338952
H	 0.989888468	 2.131074398	 1.221889244
C	 0.681475303	 1.192311572	 -0.692332860
H	 0.761181357	 2.100801156	 -1.271986066
C	 0.440114216	 -0.023851333	 -1.328299218
H	 0.342332443	 -0.064055360	 -2.406461416
N	 -3.987636812	 0.939667829	 -0.957225700
C	 -3.510350713	 -0.263056832	 -1.304073920
H	 -3.442625445	 -0.457329811	 -2.367703127
C	 -3.109532835	 -1.233957481	 -0.388380854
H	 -2.719555021	 -2.179587555	 -0.736726327
C	 -3.212923803	 -0.952134480	 0.969016958
H	 -2.910730857	 -1.679303263	 1.709851033
C	 -3.710282569	 0.290907599	 1.348067262
H	 -3.812320305	 0.559774681	 2.390142863
C	 -4.078058566	 1.195494302	 0.355875034
H	 -4.467557683	 2.170618548	 0.622653238
