22
0  1  0  1  0  1  11  11 -2.23931 -2.14037 -3.05462 -3.15355 -3.07692 -3.12157  0.99851  0.99899  0.99818 -2.44242 -0.83011  2.06826 -0.25554 -3.42503
N	 1.518805701	 -1.154288188	 -0.400822564
C	 0.925994561	 -1.066477262	 0.798611691
H	 1.005175496	 -1.942368167	 1.431320345
C	 0.245014912	 0.062678222	 1.244869256
H	 -0.208214709	 0.068537701	 2.226336300
C	 0.162222359	 1.169317709	 0.405356842
H	 -0.363411198	 2.062543368	 0.713354173
C	 0.768886208	 1.095344330	 -0.843266909
H	 0.725104822	 1.921972416	 -1.537869973
C	 1.432462557	 -0.078564185	 -1.194501621
H	 1.915616181	 -0.162272780	 -2.160507217
N	 -3.987636812	 0.939667829	 -0.957225700
C	 -3.510350713	 -0.263056832	 -1.304073920
H	 -3.442625445	 -0.457329811	 -2.367703127
C	 -3.109532835	 -1.233957481	 -0.388380854
H	 -2.719555021	 -2.179587555	 -0.736726327
C	 -3.212923803	 -0.952134480	 0.969016958
H	 -2.910730857	 -1.679303263	 1.709851033
C	 -3.710282569	 0.290907599	 1.348067262
H	 -3.812320305	 0.559774681	 2.390142863
C	 -4.078058566	 1.195494302	 0.355875034
H	 -4.467557683	 2.170618548	 0.622653238
