22
0  1  0  1  0  1  11  11 -2.00973 -1.66677 -3.74818 -4.09114 -3.79869 -3.96992  5.80551  5.80598  5.80087 -2.10193 -4.53787 11.64644 -1.13063 -8.07988
N	 -4.106596535	 -1.154218114	 -1.310521318
C	 -3.513785394	 -1.066407188	 -2.509955573
H	 -3.592966328	 -1.942298093	 -3.142664226
C	 -2.832805745	 0.062748296	 -2.956213137
H	 -2.379576124	 0.068607775	 -3.937680181
C	 -2.750013193	 1.169387783	 -2.116700723
H	 -2.224379635	 2.062613442	 -2.424698055
C	 -3.356677041	 1.095414404	 -0.868076972
H	 -3.312895655	 1.922042490	 -0.173473908
C	 -4.020253390	 -0.078494111	 -0.516842260
H	 -4.503407014	 -0.162202706	 0.449163335
N	 0.384768205	 0.939667829	 0.957225700
C	 -0.092517894	 -0.263056832	 1.304073920
H	 -0.160243162	 -0.457329811	 2.367703127
C	 -0.493335771	 -1.233957481	 0.388380854
H	 -0.883313586	 -2.179587555	 0.736726327
C	 -0.389944804	 -0.952134480	 -0.969016958
H	 -0.692137750	 -1.679303263	 -1.709851033
C	 0.107413962	 0.290907599	 -1.348067262
H	 0.209451698	 0.559774681	 -2.390142863
C	 0.475189959	 1.195494302	 -0.355875034
H	 0.864689076	 2.170618548	 -0.622653238
