22
0  1  0  1  0  1  11  11 -2.61572 -2.41672 -3.92190 -4.12090 -3.95500 -4.05305  2.73410  2.73300  2.72794 -2.88552 -2.19162  5.35136 -0.54282 -5.50244
N	 -4.448155737	 0.993468722	 0.684127610
C	 -4.479012186	 1.112679024	 -0.651018495
H	 -5.250314222	 0.546598763	 -1.159369795
C	 -3.596934901	 1.907247912	 -1.377978707
H	 -3.679070642	 1.961434947	 -2.454568911
C	 -2.618001204	 2.619897490	 -0.692335906
H	 -1.910529963	 3.242846928	 -1.221886198
C	 -2.569315836	 2.506371879	 0.692335906
H	 -1.822393804	 3.029644138	 1.271989112
C	 -3.501863264	 1.689265593	 1.328302264
H	 -3.487790086	 1.584482080	 2.406464462
N	 0.384768205	 0.939667829	 0.957225700
C	 -0.092517894	 -0.263056832	 1.304073920
H	 -0.160243162	 -0.457329811	 2.367703127
C	 -0.493335771	 -1.233957481	 0.388380854
H	 -0.883313586	 -2.179587555	 0.736726327
C	 -0.389944804	 -0.952134480	 -0.969016958
H	 -0.692137750	 -1.679303263	 -1.709851033
C	 0.107413962	 0.290907599	 -1.348067262
H	 0.209451698	 0.559774681	 -2.390142863
C	 0.475189959	 1.195494302	 -0.355875034
H	 0.864689076	 2.170618548	 -0.622653238
