22
0  1  0  1  0  1  11  11 12.03515 13.11930  8.21151  7.12737  8.12809  7.53544 30.32202 30.31924 30.28579 12.54070 -22.95831 57.91103 -4.47948 -17.93255
N	 -0.679503131	 -1.191144099	 -0.684139793
C	 -0.560835756	 -1.158261416	 0.651006312
H	 -0.665424623	 -2.109268705	 1.159357612
C	 -0.313757556	 0.002924364	 1.377966524
H	 -0.225762336	 -0.041113756	 2.454556728
C	 -0.186051766	 1.207030603	 0.692323723
H	 -0.000297348	 2.131193389	 1.221874015
C	 -0.308710513	 1.192430563	 -0.692348089
H	 -0.229004459	 2.100920147	 -1.272001295
C	 -0.550071600	 -0.023732342	 -1.328314447
H	 -0.647853373	 -0.063936369	 -2.406476645
N	 -3.987636812	 0.939667829	 -0.957225700
C	 -3.510350713	 -0.263056832	 -1.304073920
H	 -3.442625445	 -0.457329811	 -2.367703127
C	 -3.109532835	 -1.233957481	 -0.388380854
H	 -2.719555021	 -2.179587555	 -0.736726327
C	 -3.212923803	 -0.952134480	 0.969016958
H	 -2.910730857	 -1.679303263	 1.709851033
C	 -3.710282569	 0.290907599	 1.348067262
H	 -3.812320305	 0.559774681	 2.390142863
C	 -4.078058566	 1.195494302	 0.355875034
H	 -4.467557683	 2.170618548	 0.622653238
