22
0  1  0  1  0  1  11  11 -2.53395 -2.40428 -3.55722 -3.68688 -3.58308 -3.64452  1.47860  1.47752  1.47413 -2.81720 -1.26905  2.95677 -0.33991 -4.16501
N	 -4.625125784	 1.083520970	 0.684124564
C	 -4.655982233	 1.202731272	 -0.651021541
H	 -5.427284269	 0.636651011	 -1.159372841
C	 -3.773904948	 1.997300160	 -1.377981753
H	 -3.856040689	 2.051487195	 -2.454571957
C	 -2.794971251	 2.709949738	 -0.692338952
H	 -2.087500010	 3.332899176	 -1.221889244
C	 -2.746285883	 2.596424127	 0.692332860
H	 -1.999363851	 3.119696386	 1.271986066
C	 -3.678833311	 1.779317841	 1.328299218
H	 -3.664760133	 1.674534328	 2.406461416
N	 0.384768205	 0.939667829	 0.957225700
C	 -0.092517894	 -0.263056832	 1.304073920
H	 -0.160243162	 -0.457329811	 2.367703127
C	 -0.493335771	 -1.233957481	 0.388380854
H	 -0.883313586	 -2.179587555	 0.736726327
C	 -0.389944804	 -0.952134480	 -0.969016958
H	 -0.692137750	 -1.679303263	 -1.709851033
C	 0.107413962	 0.290907599	 -1.348067262
H	 0.209451698	 0.559774681	 -2.390142863
C	 0.475189959	 1.195494302	 -0.355875034
H	 0.864689076	 2.170618548	 -0.622653238
