24
0  1  0  1  0  1  12  12 -8.33499 -7.96083 -8.45742 -8.83158 -8.50070 -8.69365 -1.95000 -1.95057 -1.95451 -8.55995 -7.37282  8.93147 -1.88059 -8.23801
N	 -3.258348427	 0.943512533	 -1.508993630
H	 -3.064167285	 1.930773441	 -1.390567334
C	 -3.914949872	 0.306866168	 -0.448073463
O	 -4.267326519	 0.940495841	 0.535278370
N	 -2.891200480	 -0.996756499	 -2.696927840
H	 -4.614463726	 -1.687894340	 0.097903045
C	 -3.560458372	 -1.710476223	 -1.741533862
H	 -3.630564660	 -2.773046938	 -1.919643369
C	 -4.089620478	 -1.119463640	 -0.650248867
H	 -2.401379749	 -1.465935876	 -3.441665277
C	 -2.665871069	 0.364578547	 -2.614616222
O	 -2.003554516	 0.978241414	 -3.429025799
N	 -0.083261129	 0.235123017	 -0.914508986
H	 -0.310640079	 0.513326446	 -1.861777094
C	 -0.045087681	 -1.142241245	 -0.662703250
O	 -0.231596470	 -1.944852423	 -1.564737871
N	 0.192746527	 0.839387169	 1.292143191
H	 0.287720833	 -2.502893345	 1.011914263
C	 0.294643874	 -0.478625715	 1.642198320
H	 0.444412453	 -0.669513738	 2.694256088
C	 0.207269203	 -1.467681418	 0.728772992
H	 0.140918049	 1.557094494	 1.997052753
C	 -0.043550277	 1.269865333	 -0.000000000
O	 -0.209928448	 2.438871422	 -0.290260842
