24
0  1  0  1  0  1  12  12 86.46368 90.33648 85.62810 81.75530 85.49440 83.25223 120.31587 120.30505 120.11424 76.60994 -119.76483 295.80541 -55.41080 -44.01984
N	 -1.984957160	 1.883482559	 0.037204985
H	 -1.294410759	 2.624786111	 0.042674594
C	 -2.336339518	 1.351217358	 1.284289523
O	 -1.858003332	 1.806702357	 2.312085515
N	 -3.194121317	 0.341164115	 -1.175150193
H	 -3.621940400	 -0.209891659	 2.106875976
C	 -3.639226870	 -0.225986623	 -0.013125791
H	 -4.300215623	 -1.071315566	 -0.132320005
C	 -3.268051894	 0.242157952	 1.196535790
H	 -3.383826227	 -0.091071383	 -2.065022098
C	 -2.308814760	 1.401966447	 -1.216530946
O	 -1.857895603	 1.850224993	 -2.252988605
N	 -0.083261129	 0.235123017	 -0.914508986
H	 -0.310640079	 0.513326446	 -1.861777094
C	 -0.045087681	 -1.142241245	 -0.662703250
O	 -0.231596470	 -1.944852423	 -1.564737871
N	 0.192746527	 0.839387169	 1.292143191
H	 0.287720833	 -2.502893345	 1.011914263
C	 0.294643874	 -0.478625715	 1.642198320
H	 0.444412453	 -0.669513738	 2.694256088
C	 0.207269203	 -1.467681418	 0.728772992
H	 0.140918049	 1.557094494	 1.997052753
C	 -0.043550277	 1.269865333	 -0.000000000
O	 -0.209928448	 2.438871422	 -0.290260842
