24
0  1  0  1  0  1  12  12 -7.44020 -6.86848 -7.65098 -8.22270 -7.70712 -8.01083  1.81113  1.81161  1.79825 -7.81063 -10.02399 16.66685 -3.05473 -11.39876
N	 -0.262354461	 0.775465178	 -0.037310172
H	 -0.952900862	 1.516768729	 -0.042779781
C	 0.089027897	 0.243199977	 -1.284394710
O	 -0.389308289	 0.698684975	 -2.312190702
N	 0.946809696	 -0.766853266	 1.175045006
H	 1.374628779	 -1.317909041	 -2.106981163
C	 1.391915249	 -1.334004005	 0.013020604
H	 2.052904001	 -2.179332948	 0.132214818
C	 1.020740273	 -0.865859429	 -1.196640977
H	 1.136514606	 -1.199088764	 2.064916911
C	 0.061503138	 0.293949065	 1.216425759
O	 -0.389416018	 0.742207612	 2.252883418
N	 -3.082646812	 0.235123017	 0.914508986
H	 -2.855267862	 0.513326446	 1.861777094
C	 -3.120820260	 -1.142241245	 0.662703250
O	 -2.934311471	 -1.944852423	 1.564737871
N	 -3.358654468	 0.839387169	 -1.292143191
H	 -3.453628774	 -2.502893345	 -1.011914263
C	 -3.460551815	 -0.478625715	 -1.642198320
H	 -3.610320395	 -0.669513738	 -2.694256088
C	 -3.373177144	 -1.467681418	 -0.728772992
H	 -3.306825990	 1.557094494	 -1.997052753
C	 -3.122357665	 1.269865333	 0.000000000
O	 -2.955979493	 2.438871422	 0.290260842
