24
0  1  0  1  0  1  12  12 12.74717 14.29762 10.75769  9.20724 10.67515  9.80874 35.03203 35.03475 34.99262 12.81850 -36.85972 80.28299 -6.90055 -23.70421
N	 -3.124292454	 -0.407684770	 0.037247060
H	 -3.421006961	 0.560997732	 0.042716669
C	 -2.839028447	 -0.978123419	 1.284331598
O	 -2.994321934	 -0.336129631	 2.312127590
N	 -2.393187579	 -2.226010870	 -1.175108118
H	 -2.129868821	 -2.872040950	 2.106918051
C	 -2.124573408	 -2.895058955	 -0.013083716
H	 -1.722991446	 -3.890156478	 -0.132277930
C	 -2.344411015	 -2.339539709	 1.196577865
H	 -2.113713112	 -2.606417890	 -2.064980023
C	 -2.869216068	 -0.928911735	 -1.216488871
O	 -3.031959778	 -0.314275017	 -2.252946530
N	 -0.083261129	 0.235123017	 -0.914508986
H	 -0.310640079	 0.513326446	 -1.861777094
C	 -0.045087681	 -1.142241245	 -0.662703250
O	 -0.231596470	 -1.944852423	 -1.564737871
N	 0.192746527	 0.839387169	 1.292143191
H	 0.287720833	 -2.502893345	 1.011914263
C	 0.294643874	 -0.478625715	 1.642198320
H	 0.444412453	 -0.669513738	 2.694256088
C	 0.207269203	 -1.467681418	 0.728772992
H	 0.140918049	 1.557094494	 1.997052753
C	 -0.043550277	 1.269865333	 -0.000000000
O	 -0.209928448	 2.438871422	 -0.290260842
