24
0  1  0  1  0  1  12  12 -4.22454 -3.53818 -5.24967 -5.93603 -5.30005 -5.67041  7.50664  7.50984  7.50346 -4.45162 -13.64879 25.42046 -2.88233 -13.34096
N	 -3.464883598	 -0.565951177	 0.037289135
H	 -3.761598105	 0.402731325	 0.042758744
C	 -3.179619591	 -1.136389826	 1.284373673
O	 -3.334913078	 -0.494396038	 2.312169665
N	 -2.733778723	 -2.384277277	 -1.175066043
H	 -2.470459965	 -3.030307357	 2.106960126
C	 -2.465164552	 -3.053325362	 -0.013041641
H	 -2.063582590	 -4.048422885	 -0.132235855
C	 -2.685002159	 -2.497806116	 1.196619940
H	 -2.454304256	 -2.764684297	 -2.064937948
C	 -3.209807212	 -1.087178142	 -1.216446796
O	 -3.372550922	 -0.472541424	 -2.252904455
N	 -0.083261129	 0.235123017	 -0.914508986
H	 -0.310640079	 0.513326446	 -1.861777094
C	 -0.045087681	 -1.142241245	 -0.662703250
O	 -0.231596470	 -1.944852423	 -1.564737871
N	 0.192746527	 0.839387169	 1.292143191
H	 0.287720833	 -2.502893345	 1.011914263
C	 0.294643874	 -0.478625715	 1.642198320
H	 0.444412453	 -0.669513738	 2.694256088
C	 0.207269203	 -1.467681418	 0.728772992
H	 0.140918049	 1.557094494	 1.997052753
C	 -0.043550277	 1.269865333	 -0.000000000
O	 -0.209928448	 2.438871422	 -0.290260842
