24
0  1  0  1  0  1  12  12 -7.03413 -5.99650 -8.27432 -9.31194 -8.35062 -8.91680  9.22766  9.23261  9.20793 -7.85802 -19.23815 34.80189 -4.01069 -19.41108
N	 -1.064951887	 -0.785838001	 0.734624939
H	 -0.739863178	 -1.332314382	 1.523355628
C	 -0.997033485	 -1.403620347	 -0.520654996
O	 -0.608612135	 -2.557168299	 -0.625976731
N	 -1.699473705	 1.267117769	 -0.098071819
H	 -1.415336284	 -0.936933219	 -2.611995560
C	 -1.713787644	 0.751080695	 -1.364397399
H	 -1.985567755	 1.444969504	 -2.145645314
C	 -1.402563122	 -0.538028332	 -1.612487223
H	 -1.817504989	 2.255430371	 0.056829125
C	 -1.333995804	 0.539115443	 1.018718301
O	 -1.249166791	 1.025725842	 2.129809048
N	 1.376901114	 0.839747467	 0.734624939
H	 1.051812405	 1.386223848	 1.523355628
C	 1.308982712	 1.457529813	 -0.520654996
O	 0.920561362	 2.611077765	 -0.625976731
N	 2.011422932	 -1.213208303	 -0.098071819
H	 1.727285511	 0.990842685	 -2.611995560
C	 2.025736871	 -0.697171229	 -1.364397399
H	 2.297516982	 -1.391060038	 -2.145645314
C	 1.714512349	 0.591937798	 -1.612487223
H	 2.129454216	 -2.201520905	 0.056829125
C	 1.645945031	 -0.485205977	 1.018718301
O	 1.561116018	 -0.971816376	 2.129809048
