24
0  1  0  1  0  1  12  12 -4.26327 -3.52023 -5.55375 -6.29680 -5.61608 -6.01355  8.60673  8.60826  8.59894 -4.97707 -14.02854 26.71114 -3.09382 -14.56585
N	 0.496533606	 0.858707397	 -0.037289135
H	 0.793248113	 1.827389898	 -0.042758744
C	 0.211269599	 0.288268748	 -1.284373673
O	 0.366563086	 0.930262535	 -2.312169665
N	 -0.234571269	 -0.959618703	 1.175066043
H	 -0.497890027	 -1.605648784	 -2.106960126
C	 -0.503185440	 -1.628666789	 0.013041641
H	 -0.904767403	 -2.623764311	 0.132235855
C	 -0.283347833	 -1.073147542	 -1.196619940
H	 -0.514045736	 -1.340025723	 2.064937948
C	 0.241457219	 0.337480432	 1.216446796
O	 0.404200930	 0.952117150	 2.252904455
N	 -3.082646812	 0.235123017	 0.914508986
H	 -2.855267862	 0.513326446	 1.861777094
C	 -3.120820260	 -1.142241245	 0.662703250
O	 -2.934311471	 -1.944852423	 1.564737871
N	 -3.358654468	 0.839387169	 -1.292143191
H	 -3.453628774	 -2.502893345	 -1.011914263
C	 -3.460551815	 -0.478625715	 -1.642198320
H	 -3.610320395	 -0.669513738	 -2.694256088
C	 -3.373177144	 -1.467681418	 -0.728772992
H	 -3.306825990	 1.557094494	 -1.997052753
C	 -3.122357665	 1.269865333	 0.000000000
O	 -2.955979493	 2.438871422	 0.290260842
