24
0  1  0  1  0  1  12  12 -5.02145 -4.87700 -5.15151 -5.29596 -5.17027 -5.24224 -1.95984 -1.95949 -1.95785 -5.23304 -3.09256  2.24897 -0.60283 -3.78663
N	 1.148681687	 0.943543847	 -0.074007467
H	 0.954500545	 1.930804755	 -0.192433762
C	 1.805283132	 0.306897482	 -1.134927633
O	 2.157659779	 0.940527155	 -2.118279467
N	 0.781533740	 -0.996725185	 1.113926744
H	 2.504796986	 -1.687863026	 -1.680904141
C	 1.450791632	 -1.710444909	 0.158532765
H	 1.520897919	 -2.773015624	 0.336642272
C	 1.979953738	 -1.119432326	 -0.932752229
H	 0.291713009	 -1.465904562	 1.858664181
C	 0.556204328	 0.364609861	 1.031615125
O	 -0.106112224	 0.978272728	 1.846024702
N	 -3.082646812	 0.235123017	 0.914508986
H	 -2.855267862	 0.513326446	 1.861777094
C	 -3.120820260	 -1.142241245	 0.662703250
O	 -2.934311471	 -1.944852423	 1.564737871
N	 -3.358654468	 0.839387169	 -1.292143191
H	 -3.453628774	 -2.502893345	 -1.011914263
C	 -3.460551815	 -0.478625715	 -1.642198320
H	 -3.610320395	 -0.669513738	 -2.694256088
C	 -3.373177144	 -1.467681418	 -0.728772992
H	 -3.306825990	 1.557094494	 -1.997052753
C	 -3.122357665	 1.269865333	 0.000000000
O	 -2.955979493	 2.438871422	 0.290260842
