24
0  1  0  1  0  1  12  12 67.60646 71.13547 63.86517 60.33616 63.70296 61.70102 108.65467 108.65296 108.52137 60.34709 -97.49829 223.25772 -19.85140 -45.56094
N	 -0.228550449	 0.858649417	 -0.037204985
H	 0.068164058	 1.827331918	 -0.042674594
C	 -0.513814456	 0.288210768	 -1.284289523
O	 -0.358520969	 0.930204555	 -2.312085515
N	 -0.959655324	 -0.959676683	 1.175150193
H	 -1.222974082	 -1.605706764	 -2.106875976
C	 -1.228269495	 -1.628724769	 0.013125791
H	 -1.629851458	 -2.623822291	 0.132320005
C	 -1.008431888	 -1.073205522	 -1.196535790
H	 -1.239129791	 -1.340083703	 2.065022098
C	 -0.483626836	 0.337422452	 1.216530946
O	 -0.320883125	 0.952059170	 2.252988605
N	 -3.082646812	 0.235123017	 0.914508986
H	 -2.855267862	 0.513326446	 1.861777094
C	 -3.120820260	 -1.142241245	 0.662703250
O	 -2.934311471	 -1.944852423	 1.564737871
N	 -3.358654468	 0.839387169	 -1.292143191
H	 -3.453628774	 -2.502893345	 -1.011914263
C	 -3.460551815	 -0.478625715	 -1.642198320
H	 -3.610320395	 -0.669513738	 -2.694256088
C	 -3.373177144	 -1.467681418	 -0.728772992
H	 -3.306825990	 1.557094494	 -1.997052753
C	 -3.122357665	 1.269865333	 0.000000000
O	 -2.955979493	 2.438871422	 0.290260842
