24
0  1  0  1  0  1  12  12 88.55424 92.69803 87.10156 82.95777 86.96010 84.56441 127.41349 127.41035 127.21634 79.13223 -114.14624 285.56108 -44.33704 -47.94557
N	 -2.264868256	 0.943418592	 -1.034248817
H	 -2.070687114	 1.930679500	 -0.915822521
C	 -2.921469701	 0.306772227	 0.026671350
O	 -3.273846348	 0.940401900	 1.010023183
N	 -1.897720309	 -0.996850440	 -2.222183027
H	 -3.620983555	 -1.687988281	 0.572647858
C	 -2.566978201	 -1.710570164	 -1.266789049
H	 -2.637084489	 -2.773140879	 -1.444898556
C	 -3.096140307	 -1.119557581	 -0.175504054
H	 -1.407899578	 -1.466029817	 -2.966920464
C	 -1.672390898	 0.364484606	 -2.139871409
O	 -1.010074345	 0.978147473	 -2.954280986
N	 -0.083261129	 0.235123017	 -0.914508986
H	 -0.310640079	 0.513326446	 -1.861777094
C	 -0.045087681	 -1.142241245	 -0.662703250
O	 -0.231596470	 -1.944852423	 -1.564737871
N	 0.192746527	 0.839387169	 1.292143191
H	 0.287720833	 -2.502893345	 1.011914263
C	 0.294643874	 -0.478625715	 1.642198320
H	 0.444412453	 -0.669513738	 2.694256088
C	 0.207269203	 -1.467681418	 0.728772992
H	 0.140918049	 1.557094494	 1.997052753
C	 -0.043550277	 1.269865333	 -0.000000000
O	 -0.209928448	 2.438871422	 -0.290260842
