24
0  1  0  1  0  1  12  12 -6.49598 -6.32150 -6.59690 -6.77138 -6.62529 -6.70722 -2.54126 -2.54050 -2.53451 -6.67354 -3.63272  2.68757 -0.72649 -5.00191
N	 0.281908653	 0.775495417	 -0.037373285
H	 -0.408637748	 1.516798968	 -0.042842894
C	 0.633291011	 0.243230216	 -1.284457823
O	 0.154954825	 0.698715214	 -2.312253815
N	 1.491072810	 -0.766823027	 1.174981893
H	 1.918891893	 -1.317878802	 -2.107044276
C	 1.936178363	 -1.333973766	 0.012957491
H	 2.597167115	 -2.179302709	 0.132151705
C	 1.565003387	 -0.865829190	 -1.196704090
H	 1.680777720	 -1.199058525	 2.064853798
C	 0.605766252	 0.293979304	 1.216362646
O	 0.154847096	 0.742237851	 2.252820305
N	 -3.082646812	 0.235123017	 0.914508986
H	 -2.855267862	 0.513326446	 1.861777094
C	 -3.120820260	 -1.142241245	 0.662703250
O	 -2.934311471	 -1.944852423	 1.564737871
N	 -3.358654468	 0.839387169	 -1.292143191
H	 -3.453628774	 -2.502893345	 -1.011914263
C	 -3.460551815	 -0.478625715	 -1.642198320
H	 -3.610320395	 -0.669513738	 -2.694256088
C	 -3.373177144	 -1.467681418	 -0.728772992
H	 -3.306825990	 1.557094494	 -1.997052753
C	 -3.122357665	 1.269865333	 0.000000000
O	 -2.955979493	 2.438871422	 0.290260842
