24
0  1  0  1  0  1  12  12 -6.73088 -6.24025 -6.87085 -7.36148 -6.91357 -7.18254  0.34291  0.34286  0.31910 -6.77407 -10.22090 14.53732 -2.36154 -8.72895
N	 -2.887958374	 2.279271450	 0.037310172
H	 -2.197411973	 3.020575002	 0.042779781
C	 -3.239340732	 1.747006249	 1.284394710
O	 -2.761004546	 2.202491248	 2.312190702
N	 -4.097122531	 0.736953006	 -1.175045006
H	 -4.524941614	 0.185897232	 2.106981163
C	 -4.542228084	 0.169802268	 -0.013020604
H	 -5.203216837	 -0.675526675	 -0.132214818
C	 -4.171053108	 0.637946843	 1.196640977
H	 -4.286827441	 0.304717508	 -2.064916911
C	 -3.211815974	 1.797755338	 -1.216425759
O	 -2.760896817	 2.246013884	 -2.252883418
N	 -0.083261129	 0.235123017	 -0.914508986
H	 -0.310640079	 0.513326446	 -1.861777094
C	 -0.045087681	 -1.142241245	 -0.662703250
O	 -0.231596470	 -1.944852423	 -1.564737871
N	 0.192746527	 0.839387169	 1.292143191
H	 0.287720833	 -2.502893345	 1.011914263
C	 0.294643874	 -0.478625715	 1.642198320
H	 0.444412453	 -0.669513738	 2.694256088
C	 0.207269203	 -1.467681418	 0.728772992
H	 0.140918049	 1.557094494	 1.997052753
C	 -0.043550277	 1.269865333	 -0.000000000
O	 -0.209928448	 2.438871422	 -0.290260842
