24
0  1  0  1  0  1  12  12 12.88868 14.63856 11.04987  9.29999 10.95228  9.97153 35.56819 35.56849 35.50799 11.42014 -39.95162 85.96660 -8.77745 -25.81738
N	 -2.518637570	 0.943449906	 1.256985797
H	 -2.318986819	 1.930710814	 1.148033143
C	 -1.928154477	 0.306803541	 2.356079412
O	 -1.252735132	 0.940433214	 3.152922456
N	 -3.363844801	 -0.996819126	 0.345059243
H	 -1.805081878	 -1.687956967	 3.234864434
C	 -2.871078291	 -1.710538850	 1.402350568
H	 -3.060378793	 -2.773109565	 1.374009641
C	 -2.190578816	 -1.119526267	 2.406260892
H	 -3.763895975	 -1.465998503	 -0.451506672
C	 -3.179896143	 0.364515920	 0.191074058
O	 -3.554037249	 0.978178787	 -0.789713691
N	 -0.083261129	 0.235123017	 -0.914508986
H	 -0.310640079	 0.513326446	 -1.861777094
C	 -0.045087681	 -1.142241245	 -0.662703250
O	 -0.231596470	 -1.944852423	 -1.564737871
N	 0.192746527	 0.839387169	 1.292143191
H	 0.287720833	 -2.502893345	 1.011914263
C	 0.294643874	 -0.478625715	 1.642198320
H	 0.444412453	 -0.669513738	 2.694256088
C	 0.207269203	 -1.467681418	 0.728772992
H	 0.140918049	 1.557094494	 1.997052753
C	 -0.043550277	 1.269865333	 -0.000000000
O	 -0.209928448	 2.438871422	 -0.290260842
