24
0  1  0  1  0  1  12  12 -5.97868 -5.56061 -6.48814 -6.90621 -6.52235 -6.74475  1.49588  1.49789  1.49676 -6.27276 -8.50643 13.59133 -2.05339 -9.30427
N	 0.482913319	 0.943496876	 0.009319936
H	 0.283262568	 1.930757784	 0.118272591
C	 -0.107569774	 0.306850511	 -1.089773678
O	 -0.782989119	 0.940480184	 -1.886616723
N	 1.328120550	 -0.996772156	 0.921246491
H	 -0.230642373	 -1.687909997	 -1.968558700
C	 0.835354040	 -1.710491880	 -0.136044835
H	 1.024654541	 -2.773062595	 -0.107703907
C	 0.154854565	 -1.119479297	 -1.139955158
H	 1.728171724	 -1.465951533	 1.717812406
C	 1.144171891	 0.364562890	 1.075231676
O	 1.518312998	 0.978225757	 2.056019424
N	 -3.082646812	 0.235123017	 0.914508986
H	 -2.855267862	 0.513326446	 1.861777094
C	 -3.120820260	 -1.142241245	 0.662703250
O	 -2.934311471	 -1.944852423	 1.564737871
N	 -3.358654468	 0.839387169	 -1.292143191
H	 -3.453628774	 -2.502893345	 -1.011914263
C	 -3.460551815	 -0.478625715	 -1.642198320
H	 -3.610320395	 -0.669513738	 -2.694256088
C	 -3.373177144	 -1.467681418	 -0.728772992
H	 -3.306825990	 1.557094494	 -1.997052753
C	 -3.122357665	 1.269865333	 0.000000000
O	 -2.955979493	 2.438871422	 0.290260842
