24
0  1  0  1  0  1  12  12 -6.22392 -6.05014 -6.62495 -6.79872 -6.64848 -6.73458 -2.25406 -2.25319 -2.25140 -6.50263 -3.58597  2.80093 -0.75991 -4.95766
N	 -3.497113207	 0.943543847	 1.731986874
H	 -3.297462456	 1.930804755	 1.623034220
C	 -2.906630114	 0.306897482	 2.831080489
O	 -2.231210769	 0.940527155	 3.627923533
N	 -4.342320438	 -0.996725185	 0.820060320
H	 -2.783557515	 -1.687863026	 3.709865511
C	 -3.849553928	 -1.710444909	 1.877351645
H	 -4.038854430	 -2.773015624	 1.849010718
C	 -3.169054453	 -1.119432326	 2.881261969
H	 -4.742371612	 -1.465904562	 0.023494405
C	 -4.158371780	 0.364609861	 0.666075135
O	 -4.532512886	 0.978272728	 -0.314712614
N	 -0.083261129	 0.235123017	 -0.914508986
H	 -0.310640079	 0.513326446	 -1.861777094
C	 -0.045087681	 -1.142241245	 -0.662703250
O	 -0.231596470	 -1.944852423	 -1.564737871
N	 0.192746527	 0.839387169	 1.292143191
H	 0.287720833	 -2.502893345	 1.011914263
C	 0.294643874	 -0.478625715	 1.642198320
H	 0.444412453	 -0.669513738	 2.694256088
C	 0.207269203	 -1.467681418	 0.728772992
H	 0.140918049	 1.557094494	 1.997052753
C	 -0.043550277	 1.269865333	 -0.000000000
O	 -0.209928448	 2.438871422	 -0.290260842
