24
0  1  0  1  0  1  12  12 -5.81425 -5.59517 -5.96582 -6.18490 -5.99068 -6.10349 -1.69335 -1.69230 -1.69354 -6.04878 -4.40117  4.31228 -0.91597 -5.04392
N	 0.950143424	 0.943528190	 -0.073983904
H	 0.755962282	 1.930789098	 -0.192410199
C	 1.606744869	 0.306881825	 -1.134904070
O	 1.959121516	 0.940511498	 -2.118255904
N	 0.582995477	 -0.996740842	 1.113950307
H	 2.306258723	 -1.687878683	 -1.680880578
C	 1.252253369	 -1.710460566	 0.158556328
H	 1.322359656	 -2.773031281	 0.336665835
C	 1.781415475	 -1.119447983	 -0.932728666
H	 0.093174746	 -1.465920219	 1.858687744
C	 0.357666065	 0.364594204	 1.031638688
O	 -0.304650487	 0.978257071	 1.846048265
N	 -3.082646812	 0.235123017	 0.914508986
H	 -2.855267862	 0.513326446	 1.861777094
C	 -3.120820260	 -1.142241245	 0.662703250
O	 -2.934311471	 -1.944852423	 1.564737871
N	 -3.358654468	 0.839387169	 -1.292143191
H	 -3.453628774	 -2.502893345	 -1.011914263
C	 -3.460551815	 -0.478625715	 -1.642198320
H	 -3.610320395	 -0.669513738	 -2.694256088
C	 -3.373177144	 -1.467681418	 -0.728772992
H	 -3.306825990	 1.557094494	 -1.997052753
C	 -3.122357665	 1.269865333	 0.000000000
O	 -2.955979493	 2.438871422	 0.290260842
