24
0  1  0  1  0  1  12  12 -6.79656 -6.47141 -6.89888 -7.22404 -6.93156 -7.10594 -1.61344 -1.61221 -1.62474 -6.92727 -6.75572  7.68544 -1.39432 -6.46267
N	 -3.068558617	 2.358429228	 0.037331210
H	 -2.378012216	 3.099732780	 0.042800819
C	 -3.419940975	 1.826164027	 1.284415748
O	 -2.941604789	 2.281649026	 2.312211740
N	 -4.277722774	 0.816110784	 -1.175023968
H	 -4.705541857	 0.265055010	 2.107002201
C	 -4.722828327	 0.248960046	 -0.012999566
H	 -5.383817080	 -0.596368897	 -0.132193780
C	 -4.351653351	 0.717104621	 1.196662015
H	 -4.467427684	 0.383875286	 -2.064895873
C	 -3.392416217	 1.876913116	 -1.216404721
O	 -2.941497060	 2.325171662	 -2.252862380
N	 -0.083261129	 0.235123017	 -0.914508986
H	 -0.310640079	 0.513326446	 -1.861777094
C	 -0.045087681	 -1.142241245	 -0.662703250
O	 -0.231596470	 -1.944852423	 -1.564737871
N	 0.192746527	 0.839387169	 1.292143191
H	 0.287720833	 -2.502893345	 1.011914263
C	 0.294643874	 -0.478625715	 1.642198320
H	 0.444412453	 -0.669513738	 2.694256088
C	 0.207269203	 -1.467681418	 0.728772992
H	 0.140918049	 1.557094494	 1.997052753
C	 -0.043550277	 1.269865333	 -0.000000000
O	 -0.209928448	 2.438871422	 -0.290260842
