24
0  1  0  1  0  1  12  12 -5.65768 -5.52058 -5.97244 -6.10954 -5.98769 -6.05689 -2.25046 -2.24797 -2.24501 -5.87126 -3.10636  2.33312 -0.64394 -4.45408
N	 -4.146065886	 -0.882483991	 0.037373285
H	 -4.442780393	 0.086198511	 0.042842894
C	 -3.860801879	 -1.452922640	 1.284457823
O	 -4.016095366	 -0.810928852	 2.312253815
N	 -3.414961011	 -2.700810091	 -1.174981893
H	 -3.151642253	 -3.346840171	 2.107044276
C	 -3.146346840	 -3.369858176	 -0.012957491
H	 -2.744764878	 -4.364955699	 -0.132151705
C	 -3.366184447	 -2.814338930	 1.196704090
H	 -3.135486544	 -3.081217111	 -2.064853798
C	 -3.890989500	 -1.403710956	 -1.216362646
O	 -4.053733210	 -0.789074238	 -2.252820305
N	 -0.083261129	 0.235123017	 -0.914508986
H	 -0.310640079	 0.513326446	 -1.861777094
C	 -0.045087681	 -1.142241245	 -0.662703250
O	 -0.231596470	 -1.944852423	 -1.564737871
N	 0.192746527	 0.839387169	 1.292143191
H	 0.287720833	 -2.502893345	 1.011914263
C	 0.294643874	 -0.478625715	 1.642198320
H	 0.444412453	 -0.669513738	 2.694256088
C	 0.207269203	 -1.467681418	 0.728772992
H	 0.140918049	 1.557094494	 1.997052753
C	 -0.043550277	 1.269865333	 -0.000000000
O	 -0.209928448	 2.438871422	 -0.290260842
