24
0  1  0  1  0  1  12  12 10.03913 12.16739  8.12946  6.00119  8.01296  6.82634 37.17627 37.18024 37.12438  8.51032 -45.36887 95.67177 -9.79912 -31.99346
N	 -0.753002659	 -0.731928535	 0.734624939
H	 -0.427913950	 -1.278404916	 1.523355628
C	 -0.685084257	 -1.349710881	 -0.520654996
O	 -0.296662907	 -2.503258833	 -0.625976731
N	 -1.387524477	 1.321027235	 -0.098071819
H	 -1.103387056	 -0.883023753	 -2.611995560
C	 -1.401838416	 0.804990161	 -1.364397399
H	 -1.673618527	 1.498878970	 -2.145645314
C	 -1.090613894	 -0.484118866	 -1.612487223
H	 -1.505555761	 2.309339837	 0.056829125
C	 -1.022046576	 0.593024909	 1.018718301
O	 -0.937217563	 1.079635308	 2.129809048
N	 1.376901114	 0.839747467	 0.734624939
H	 1.051812405	 1.386223848	 1.523355628
C	 1.308982712	 1.457529813	 -0.520654996
O	 0.920561362	 2.611077765	 -0.625976731
N	 2.011422932	 -1.213208303	 -0.098071819
H	 1.727285511	 0.990842685	 -2.611995560
C	 2.025736871	 -0.697171229	 -1.364397399
H	 2.297516982	 -1.391060038	 -2.145645314
C	 1.714512349	 0.591937798	 -1.612487223
H	 2.129454216	 -2.201520905	 0.056829125
C	 1.645945031	 -0.485205977	 1.018718301
O	 1.561116018	 -0.971816376	 2.129809048
