24
0  1  0  1  0  1  12  12 97.53654 101.59923 95.83343 91.77074 95.70007 93.35903 136.02446 136.01599 135.85149 90.35942 -133.12542 312.49298 -43.86951 -45.13863
N	 -0.439624412	 0.943418592	 -0.073818963
H	 -0.633805554	 1.930679500	 -0.192245258
C	 0.216977033	 0.306772227	 -1.134739129
O	 0.569353680	 0.940401900	 -2.118090963
N	 -0.806772359	 -0.996850440	 1.114115248
H	 0.916490887	 -1.687988281	 -1.680715637
C	 -0.137514467	 -1.710570164	 0.158721269
H	 -0.067408180	 -2.773140879	 0.336830776
C	 0.391647639	 -1.119557581	 -0.932563725
H	 -1.296593090	 -1.466029817	 1.858852685
C	 -1.032101771	 0.364484606	 1.031803629
O	 -1.694418323	 0.978147473	 1.846213206
N	 -3.082646812	 0.235123017	 0.914508986
H	 -2.855267862	 0.513326446	 1.861777094
C	 -3.120820260	 -1.142241245	 0.662703250
O	 -2.934311471	 -1.944852423	 1.564737871
N	 -3.358654468	 0.839387169	 -1.292143191
H	 -3.453628774	 -2.502893345	 -1.011914263
C	 -3.460551815	 -0.478625715	 -1.642198320
H	 -3.610320395	 -0.669513738	 -2.694256088
C	 -3.373177144	 -1.467681418	 -0.728772992
H	 -3.306825990	 1.557094494	 -1.997052753
C	 -3.122357665	 1.269865333	 0.000000000
O	 -2.955979493	 2.438871422	 0.290260842
