24
0  1  0  1  0  1  12  12 -4.93451 -4.07351 -5.23231 -6.09330 -5.30162 -5.77204  7.41875  7.41775  7.38758 -5.46167 -15.31610 30.10821 -5.10109 -15.15270
N	 -0.443775499	 0.775455099	 -0.037289135
H	 -1.134321900	 1.516758650	 -0.042758744
C	 -0.092393141	 0.243189898	 -1.284373673
O	 -0.570729327	 0.698674896	 -2.312169665
N	 0.765388658	 -0.766863345	 1.175066043
H	 1.193207741	 -1.317919120	 -2.106960126
C	 1.210494211	 -1.334014084	 0.013041641
H	 1.871482963	 -2.179343027	 0.132235855
C	 0.839319235	 -0.865869508	 -1.196619940
H	 0.955093568	 -1.199098843	 2.064937948
C	 -0.119917900	 0.293938986	 1.216446796
O	 -0.570837056	 0.742197533	 2.252904455
N	 -3.082646812	 0.235123017	 0.914508986
H	 -2.855267862	 0.513326446	 1.861777094
C	 -3.120820260	 -1.142241245	 0.662703250
O	 -2.934311471	 -1.944852423	 1.564737871
N	 -3.358654468	 0.839387169	 -1.292143191
H	 -3.453628774	 -2.502893345	 -1.011914263
C	 -3.460551815	 -0.478625715	 -1.642198320
H	 -3.610320395	 -0.669513738	 -2.694256088
C	 -3.373177144	 -1.467681418	 -0.728772992
H	 -3.306825990	 1.557094494	 -1.997052753
C	 -3.122357665	 1.269865333	 0.000000000
O	 -2.955979493	 2.438871422	 0.290260842
