24
0  1  0  1  0  1  12  12 13.54127 15.41781 12.91548 11.03894 12.81998 11.76414 34.70012 34.69816 34.63611 12.32834 -41.86971 94.90876 -14.48653 -26.22418
N	 -2.596028313	 0.943449906	 -1.192497088
H	 -2.401847171	 1.930710814	 -1.074070792
C	 -3.252629758	 0.306803541	 -0.131576921
O	 -3.605006405	 0.940433214	 0.851774912
N	 -2.228880366	 -0.996819126	 -2.380431298
H	 -3.952143612	 -1.687956967	 0.414399587
C	 -2.898138258	 -1.710538850	 -1.425037320
H	 -2.968244546	 -2.773109565	 -1.603146827
C	 -3.427300364	 -1.119526267	 -0.333752325
H	 -1.739059635	 -1.465998503	 -3.125168735
C	 -2.003550955	 0.364515920	 -2.298119680
O	 -1.341234402	 0.978178787	 -3.112529257
N	 -0.083261129	 0.235123017	 -0.914508986
H	 -0.310640079	 0.513326446	 -1.861777094
C	 -0.045087681	 -1.142241245	 -0.662703250
O	 -0.231596470	 -1.944852423	 -1.564737871
N	 0.192746527	 0.839387169	 1.292143191
H	 0.287720833	 -2.502893345	 1.011914263
C	 0.294643874	 -0.478625715	 1.642198320
H	 0.444412453	 -0.669513738	 2.694256088
C	 0.207269203	 -1.467681418	 0.728772992
H	 0.140918049	 1.557094494	 1.997052753
C	 -0.043550277	 1.269865333	 -0.000000000
O	 -0.209928448	 2.438871422	 -0.290260842
