24
0  1  0  1  0  1  12  12 -4.92792 -4.18908 -5.14515 -5.88400 -5.19917 -5.61086  4.77652  4.77482  4.73742 -4.83664 -16.06333 27.25195 -4.14844 -11.87682
N	 -2.707358131	 2.200113672	 0.037289135
H	 -2.016811730	 2.941417224	 0.042758744
C	 -3.058740489	 1.667848471	 1.284373673
O	 -2.580404303	 2.123333470	 2.312169665
N	 -3.916522288	 0.657795228	 -1.175066043
H	 -4.344341371	 0.106739454	 2.106960126
C	 -4.361627841	 0.090644490	 -0.013041641
H	 -5.022616594	 -0.754684453	 -0.132235855
C	 -3.990452865	 0.558789065	 1.196619940
H	 -4.106227198	 0.225559730	 -2.064937948
C	 -3.031215731	 1.718597560	 -1.216446796
O	 -2.580296574	 2.166856106	 -2.252904455
N	 -0.083261129	 0.235123017	 -0.914508986
H	 -0.310640079	 0.513326446	 -1.861777094
C	 -0.045087681	 -1.142241245	 -0.662703250
O	 -0.231596470	 -1.944852423	 -1.564737871
N	 0.192746527	 0.839387169	 1.292143191
H	 0.287720833	 -2.502893345	 1.011914263
C	 0.294643874	 -0.478625715	 1.642198320
H	 0.444412453	 -0.669513738	 2.694256088
C	 0.207269203	 -1.467681418	 0.728772992
H	 0.140918049	 1.557094494	 1.997052753
C	 -0.043550277	 1.269865333	 -0.000000000
O	 -0.209928448	 2.438871422	 -0.290260842
