24
0  1  0  1  0  1  12  12 68.03162 72.37636 65.22340 60.87866 65.04979 62.58564 113.52154 113.52193 113.39696 61.81249 -112.96868 254.04931 -26.03918 -53.22896
N	 -0.441053432	 -0.678019069	 0.734624939
H	 -0.115964723	 -1.224495450	 1.523355628
C	 -0.373135030	 -1.295801415	 -0.520654996
O	 0.015286320	 -2.449349367	 -0.625976731
N	 -1.075575250	 1.374936701	 -0.098071819
H	 -0.791437829	 -0.829114287	 -2.611995560
C	 -1.089889189	 0.858899627	 -1.364397399
H	 -1.361669300	 1.552788436	 -2.145645314
C	 -0.778664667	 -0.430209400	 -1.612487223
H	 -1.193606534	 2.363249303	 0.056829125
C	 -0.710097349	 0.646934375	 1.018718301
O	 -0.625268336	 1.133544774	 2.129809048
N	 1.376901114	 0.839747467	 0.734624939
H	 1.051812405	 1.386223848	 1.523355628
C	 1.308982712	 1.457529813	 -0.520654996
O	 0.920561362	 2.611077765	 -0.625976731
N	 2.011422932	 -1.213208303	 -0.098071819
H	 1.727285511	 0.990842685	 -2.611995560
C	 2.025736871	 -0.697171229	 -1.364397399
H	 2.297516982	 -1.391060038	 -2.145645314
C	 1.714512349	 0.591937798	 -1.612487223
H	 2.129454216	 -2.201520905	 0.056829125
C	 1.645945031	 -0.485205977	 1.018718301
O	 1.561116018	 -0.971816376	 2.129809048
