24
0  1  0  1  0  1  12  12 78.04936 81.50631 73.88022 70.42327 73.74397 71.78525 121.26932 121.27192 121.17962 76.58765 -107.08592 245.32858 -18.48076 -43.17425
N	 -2.783701310	 -0.249418363	 0.037204985
H	 -3.080415817	 0.719264139	 0.042674594
C	 -2.498437303	 -0.819857012	 1.284289523
O	 -2.653730790	 -0.177863224	 2.312085515
N	 -2.052596435	 -2.067744463	 -1.175150193
H	 -1.789277677	 -2.713774543	 2.106875976
C	 -1.783982264	 -2.736792548	 -0.013125791
H	 -1.382400302	 -3.731890071	 -0.132320005
C	 -2.003819871	 -2.181273302	 1.196535790
H	 -1.773121968	 -2.448151483	 -2.065022098
C	 -2.528624924	 -0.770645328	 -1.216530946
O	 -2.691368634	 -0.156008610	 -2.252988605
N	 -0.083261129	 0.235123017	 -0.914508986
H	 -0.310640079	 0.513326446	 -1.861777094
C	 -0.045087681	 -1.142241245	 -0.662703250
O	 -0.231596470	 -1.944852423	 -1.564737871
N	 0.192746527	 0.839387169	 1.292143191
H	 0.287720833	 -2.502893345	 1.011914263
C	 0.294643874	 -0.478625715	 1.642198320
H	 0.444412453	 -0.669513738	 2.694256088
C	 0.207269203	 -1.467681418	 0.728772992
H	 0.140918049	 1.557094494	 1.997052753
C	 -0.043550277	 1.269865333	 -0.000000000
O	 -0.209928448	 2.438871422	 -0.290260842
