24
0  1  0  1  0  1  12  12 15.97951 17.90058 15.29990 13.37883 15.19948 14.11226 38.11738 38.11453 38.03237 13.97121 -39.01198 94.94044 -14.84217 -27.11508
N	 -0.806617574	 0.775434939	 -0.037247060
H	 -1.497163975	 1.516738490	 -0.042716669
C	 -0.455235216	 0.243169738	 -1.284331598
O	 -0.933571402	 0.698654736	 -2.312127590
N	 0.402546583	 -0.766883505	 1.175108118
H	 0.830365666	 -1.317939280	 -2.106918051
C	 0.847652136	 -1.334034244	 0.013083716
H	 1.508640888	 -2.179363187	 0.132277930
C	 0.476477160	 -0.865889668	 -1.196577865
H	 0.592251493	 -1.199119003	 2.064980023
C	 -0.482759975	 0.293918826	 1.216488871
O	 -0.933679131	 0.742177373	 2.252946530
N	 -3.082646812	 0.235123017	 0.914508986
H	 -2.855267862	 0.513326446	 1.861777094
C	 -3.120820260	 -1.142241245	 0.662703250
O	 -2.934311471	 -1.944852423	 1.564737871
N	 -3.358654468	 0.839387169	 -1.292143191
H	 -3.453628774	 -2.502893345	 -1.011914263
C	 -3.460551815	 -0.478625715	 -1.642198320
H	 -3.610320395	 -0.669513738	 -2.694256088
C	 -3.373177144	 -1.467681418	 -0.728772992
H	 -3.306825990	 1.557094494	 -1.997052753
C	 -3.122357665	 1.269865333	 0.000000000
O	 -2.955979493	 2.438871422	 0.290260842
