24
0  1  0  1  0  1  12  12 -6.79530 -6.44763 -7.56381 -7.91148 -7.60230 -7.78087  0.46031  0.46147  0.46190 -7.23284 -6.16885  8.79962 -1.39280 -8.47081
N	 0.859075633	 0.858736387	 -0.037331210
H	 1.155790140	 1.827418888	 -0.042800819
C	 0.573811626	 0.288297738	 -1.284415748
O	 0.729105113	 0.930291525	 -2.312211740
N	 0.127970758	 -0.959589713	 1.175023968
H	 -0.135348000	 -1.605619794	 -2.107002201
C	 -0.140643413	 -1.628637799	 0.012999566
H	 -0.542225376	 -2.623735321	 0.132193780
C	 0.079194194	 -1.073118552	 -1.196662015
H	 -0.151503709	 -1.339996733	 2.064895873
C	 0.603999246	 0.337509422	 1.216404721
O	 0.766742957	 0.952146140	 2.252862380
N	 -3.082646812	 0.235123017	 0.914508986
H	 -2.855267862	 0.513326446	 1.861777094
C	 -3.120820260	 -1.142241245	 0.662703250
O	 -2.934311471	 -1.944852423	 1.564737871
N	 -3.358654468	 0.839387169	 -1.292143191
H	 -3.453628774	 -2.502893345	 -1.011914263
C	 -3.460551815	 -0.478625715	 -1.642198320
H	 -3.610320395	 -0.669513738	 -2.694256088
C	 -3.373177144	 -1.467681418	 -0.728772992
H	 -3.306825990	 1.557094494	 -1.997052753
C	 -3.122357665	 1.269865333	 0.000000000
O	 -2.955979493	 2.438871422	 0.290260842
