24
0  1  0  1  0  1  12  12 15.86996 17.39964 14.13382 12.60414 14.05925 13.20060 36.97741 36.97954 36.93827 16.12619 -40.02732 87.23322 -8.26949 -22.81022
N	 -0.107526479	 0.943449906	 0.009377379
H	 -0.307177230	 1.930710814	 0.118330034
C	 -0.698009572	 0.306803541	 -1.089716235
O	 -1.373428917	 0.940433214	 -1.886559280
N	 0.737680752	 -0.996819126	 0.921303934
H	 -0.821082171	 -1.687956967	 -1.968501257
C	 0.244914242	 -1.710538850	 -0.135987392
H	 0.434214743	 -2.773109565	 -0.107646464
C	 -0.435585233	 -1.119526267	 -1.139897715
H	 1.137731926	 -1.465998503	 1.717869849
C	 0.553732093	 0.364515920	 1.075289119
O	 0.927873200	 0.978178787	 2.056076867
N	 -3.082646812	 0.235123017	 0.914508986
H	 -2.855267862	 0.513326446	 1.861777094
C	 -3.120820260	 -1.142241245	 0.662703250
O	 -2.934311471	 -1.944852423	 1.564737871
N	 -3.358654468	 0.839387169	 -1.292143191
H	 -3.453628774	 -2.502893345	 -1.011914263
C	 -3.460551815	 -0.478625715	 -1.642198320
H	 -3.610320395	 -0.669513738	 -2.694256088
C	 -3.373177144	 -1.467681418	 -0.728772992
H	 -3.306825990	 1.557094494	 -1.997052753
C	 -3.122357665	 1.269865333	 0.000000000
O	 -2.955979493	 2.438871422	 0.290260842
