24
0  1  0  1  0  1  12  12 -7.35791 -6.98994 -8.00278 -8.37075 -8.04193 -8.23300 -0.31407 -0.31299 -0.31528 -7.77976 -6.81390  9.02964 -1.55931 -8.43618
N	 -3.170954661	 0.943512533	 1.573653182
H	 -2.971303910	 1.930773441	 1.464700528
C	 -2.580471568	 0.306866168	 2.672746797
O	 -1.905052223	 0.940495841	 3.469589841
N	 -4.016161892	 -0.996756499	 0.661726628
H	 -2.457398969	 -1.687894340	 3.551531819
C	 -3.523395382	 -1.710476223	 1.719017953
H	 -3.712695884	 -2.773046938	 1.690677026
C	 -2.842895907	 -1.119463640	 2.722928277
H	 -4.416213066	 -1.465935876	 -0.134839287
C	 -3.832213234	 0.364578547	 0.507741443
O	 -4.206354340	 0.978241414	 -0.473046306
N	 -0.083261129	 0.235123017	 -0.914508986
H	 -0.310640079	 0.513326446	 -1.861777094
C	 -0.045087681	 -1.142241245	 -0.662703250
O	 -0.231596470	 -1.944852423	 -1.564737871
N	 0.192746527	 0.839387169	 1.292143191
H	 0.287720833	 -2.502893345	 1.011914263
C	 0.294643874	 -0.478625715	 1.642198320
H	 0.444412453	 -0.669513738	 2.694256088
C	 0.207269203	 -1.467681418	 0.728772992
H	 0.140918049	 1.557094494	 1.997052753
C	 -0.043550277	 1.269865333	 -0.000000000
O	 -0.209928448	 2.438871422	 -0.290260842
