24
0  1  0  1  0  1  12  12 -7.87676 -7.49598 -8.03434 -8.41512 -8.07919 -8.27468 -0.93065 -0.92921 -0.93225 -8.16329 -6.83182  9.14084 -1.85880 -8.61350
N	 -0.080933423	 0.775475258	 -0.037331210
H	 -0.771479824	 1.516778809	 -0.042800819
C	 0.270448935	 0.243210057	 -1.284415748
O	 -0.207887251	 0.698695055	 -2.312211740
N	 1.128230734	 -0.766843186	 1.175023968
H	 1.556049817	 -1.317898961	 -2.107002201
C	 1.573336287	 -1.333993925	 0.012999566
H	 2.234325039	 -2.179322868	 0.132193780
C	 1.202161311	 -0.865849349	 -1.196662015
H	 1.317935644	 -1.199078684	 2.064895873
C	 0.242924176	 0.293959145	 1.216404721
O	 -0.207994980	 0.742217692	 2.252862380
N	 -3.082646812	 0.235123017	 0.914508986
H	 -2.855267862	 0.513326446	 1.861777094
C	 -3.120820260	 -1.142241245	 0.662703250
O	 -2.934311471	 -1.944852423	 1.564737871
N	 -3.358654468	 0.839387169	 -1.292143191
H	 -3.453628774	 -2.502893345	 -1.011914263
C	 -3.460551815	 -0.478625715	 -1.642198320
H	 -3.610320395	 -0.669513738	 -2.694256088
C	 -3.373177144	 -1.467681418	 -0.728772992
H	 -3.306825990	 1.557094494	 -1.997052753
C	 -3.122357665	 1.269865333	 0.000000000
O	 -2.955979493	 2.438871422	 0.290260842
