24
0  1  0  1  0  1  12  12 93.85208 97.42459 88.79434 85.22183 88.66823 86.62828 138.84612 138.84693 138.73435 92.51517 -125.45187 287.52152 -26.56067 -42.99382
N	 -0.501153012	 0.943418592	 0.009415674
H	 -0.700803763	 1.930679500	 0.118368329
C	 -1.091636105	 0.306772227	 -1.089677940
O	 -1.767055450	 0.940401900	 -1.886520985
N	 0.344054219	 -0.996850440	 0.921342229
H	 -1.214708704	 -1.687988281	 -1.968462962
C	 -0.148712291	 -1.710570164	 -0.135949097
H	 0.040588210	 -2.773140879	 -0.107608169
C	 -0.829211766	 -1.119557581	 -1.139859420
H	 0.744105393	 -1.466029817	 1.717908144
C	 0.160105560	 0.364484606	 1.075327414
O	 0.534246667	 0.978147473	 2.056115162
N	 -3.082646812	 0.235123017	 0.914508986
H	 -2.855267862	 0.513326446	 1.861777094
C	 -3.120820260	 -1.142241245	 0.662703250
O	 -2.934311471	 -1.944852423	 1.564737871
N	 -3.358654468	 0.839387169	 -1.292143191
H	 -3.453628774	 -2.502893345	 -1.011914263
C	 -3.460551815	 -0.478625715	 -1.642198320
H	 -3.610320395	 -0.669513738	 -2.694256088
C	 -3.373177144	 -1.467681418	 -0.728772992
H	 -3.306825990	 1.557094494	 -1.997052753
C	 -3.122357665	 1.269865333	 0.000000000
O	 -2.955979493	 2.438871422	 0.290260842
