24
0  1  0  1  0  1  12  12 16.86547 18.65455 16.05047 14.26139 15.96802 14.94713 36.94401 36.94170 36.86053 16.78543 -45.85955 97.96722 -12.01603 -23.30621
N	 -0.042547887	 0.943449906	 -0.073866089
H	 -0.236729029	 1.930710814	 -0.192292384
C	 0.614053558	 0.306803541	 -1.134786255
O	 0.966430205	 0.940433214	 -2.118138089
N	 -0.409695834	 -0.996819126	 1.114068122
H	 1.313567412	 -1.687956967	 -1.680762763
C	 0.259562058	 -1.710538850	 0.158674143
H	 0.329668345	 -2.773109565	 0.336783650
C	 0.788724164	 -1.119526267	 -0.932610851
H	 -0.899516565	 -1.465998503	 1.858805559
C	 -0.635025246	 0.364515920	 1.031756503
O	 -1.297341798	 0.978178787	 1.846166080
N	 -3.082646812	 0.235123017	 0.914508986
H	 -2.855267862	 0.513326446	 1.861777094
C	 -3.120820260	 -1.142241245	 0.662703250
O	 -2.934311471	 -1.944852423	 1.564737871
N	 -3.358654468	 0.839387169	 -1.292143191
H	 -3.453628774	 -2.502893345	 -1.011914263
C	 -3.460551815	 -0.478625715	 -1.642198320
H	 -3.610320395	 -0.669513738	 -2.694256088
C	 -3.373177144	 -1.467681418	 -0.728772992
H	 -3.306825990	 1.557094494	 -1.997052753
C	 -3.122357665	 1.269865333	 0.000000000
O	 -2.955979493	 2.438871422	 0.290260842
