24
0  1  0  1  0  1  12  12 -6.76649 -6.59661 -6.84259 -7.01247 -6.86869 -6.94987 -3.21031 -3.20955 -3.20493 -6.91831 -3.99560  2.59488 -0.76266 -4.75492
N	 -3.589508484	 0.943543847	 -1.667241901
H	 -3.395327342	 1.930804755	 -1.548815605
C	 -4.246109929	 0.306897482	 -0.606321734
O	 -4.598486576	 0.940527155	 0.377030099
N	 -3.222360537	 -0.996725185	 -2.855176111
H	 -4.945623783	 -1.687863026	 -0.060345226
C	 -3.891618429	 -1.710444909	 -1.899782133
H	 -3.961724717	 -2.773015624	 -2.077891640
C	 -4.420780535	 -1.119432326	 -0.808497138
H	 -2.732539806	 -1.465904562	 -3.599913548
C	 -2.997031126	 0.364609861	 -2.772864493
O	 -2.334714573	 0.978272728	 -3.587274070
N	 -0.083261129	 0.235123017	 -0.914508986
H	 -0.310640079	 0.513326446	 -1.861777094
C	 -0.045087681	 -1.142241245	 -0.662703250
O	 -0.231596470	 -1.944852423	 -1.564737871
N	 0.192746527	 0.839387169	 1.292143191
H	 0.287720833	 -2.502893345	 1.011914263
C	 0.294643874	 -0.478625715	 1.642198320
H	 0.444412453	 -0.669513738	 2.694256088
C	 0.207269203	 -1.467681418	 0.728772992
H	 0.140918049	 1.557094494	 1.997052753
C	 -0.043550277	 1.269865333	 -0.000000000
O	 -0.209928448	 2.438871422	 -0.290260842
