23
0  1  0  1  0  1  11  12 -2.07555 -1.97862 -2.88201 -2.97894 -2.90689 -2.94928  1.15967  1.15959  1.15785 -2.27417 -0.64785  2.04775 -0.27618 -3.39789
N	 1.510473019	 -1.025599130	 -0.642487434
C	 1.076554666	 -1.153073072	 0.619328984
H	 1.299510413	 -2.095995127	 1.103985002
C	 0.382307529	 -0.159085972	 1.303797714
H	 0.061572239	 -0.326519391	 2.322458990
C	 0.113869905	 1.039345463	 0.650531432
H	 -0.428321153	 1.832800228	 1.146086145
C	 0.554648001	 1.188343185	 -0.659309002
H	 0.364437087	 2.095249281	 -1.215078349
C	 1.243263284	 0.135195698	 -1.255924308
H	 1.596130155	 0.224276218	 -2.276157407
C	 -3.564218405	 0.051929523	 1.387497493
H	 -3.475115555	 0.091584474	 2.464898066
C	 -4.114128287	 1.128476535	 0.694171733
H	 -4.454032044	 2.002695713	 1.233073027
C	 -4.232213127	 1.075695630	 -0.694171733
H	 -4.664231349	 1.908710511	 -1.232364002
C	 -3.798486460	 -0.052690755	 -1.387240449
H	 -3.890368384	 -0.094383809	 -2.464252824
C	 -3.243461110	 -1.127664626	 -0.693864704
H	 -2.895154715	 -1.998406971	 -1.232084680
C	 -3.128531731	 -1.075855657	 0.693610387
H	 -2.696065454	 -1.908896886	 1.230697910
