23
0  1  0  1  0  1  11  12 52.55299 55.45441 43.52763 40.62620 43.33337 41.73430 93.11782 93.11935 93.03878 52.09980 -79.47920 188.55251 -16.60649 -40.36703
N	 -2.082540406	 0.007568237	 2.371685678
C	 -1.467654475	 1.165236047	 2.651749868
H	 -2.115258532	 2.018407500	 2.814261961
C	 -0.085439577	 1.306083783	 2.741920684
H	 0.346409181	 2.269733898	 2.973136981
C	 0.715511814	 0.189104479	 2.527706773
H	 1.793080982	 0.259488757	 2.582541283
C	 0.094959911	 -1.019550559	 2.234047196
H	 0.670734421	 -1.915172442	 2.049972259
C	 -1.295554366	 -1.057588442	 2.168597778
H	 -1.804407291	 -1.986041820	 1.939755104
C	 0.818746988	 0.864172340	 0.188286116
H	 1.466113611	 1.716667667	 0.344721407
C	 1.368997119	 -0.390523941	 -0.066698182
H	 2.443036367	 -0.511861940	 -0.110574439
C	 0.534378602	 -1.488493196	 -0.271888037
H	 0.960848252	 -2.461564217	 -0.475507491
C	 -0.849115613	 -1.330507345	 -0.219896434
H	 -1.497069424	 -2.181860285	 -0.379553211
C	 -1.399485456	 -0.076030202	 0.040434165
H	 -2.472686669	 0.044907778	 0.093382057
C	 -0.565292303	 1.021403360	 0.242279208
H	 -0.992556673	 1.993661308	 0.446258168
