23
0  1  0  1  0  1  11  12 56.08695 58.50263 50.38521 47.96953 50.23772 48.89104 89.18726 89.18520 89.10134 54.82171 -69.35702 170.86431 -13.16683 -33.51875
N	 -1.126026270	 -1.028141429	 -0.903502268
C	 -0.968819469	 -1.266099047	 0.406221982
H	 -1.063201474	 -2.300400176	 0.714468532
C	 -0.696127618	 -0.275780322	 1.346112859
H	 -0.579302523	 -0.536564780	 2.388667046
C	 -0.581112716	 1.041645217	 0.914586475
H	 -0.376447142	 1.839684137	 1.614844974
C	 -0.743207829	 1.307278624	 -0.440157664
H	 -0.673068153	 2.313988421	 -0.826362580
C	 -1.011662115	 0.246200809	 -1.301149317
H	 -1.144245593	 0.425609239	 -2.361130534
C	 -3.564218405	 0.051929523	 1.387497493
H	 -3.475115555	 0.091584474	 2.464898066
C	 -4.114128287	 1.128476535	 0.694171733
H	 -4.454032044	 2.002695713	 1.233073027
C	 -4.232213127	 1.075695630	 -0.694171733
H	 -4.664231349	 1.908710511	 -1.232364002
C	 -3.798486460	 -0.052690755	 -1.387240449
H	 -3.890368384	 -0.094383809	 -2.464252824
C	 -3.243461110	 -1.127664626	 -0.693864704
H	 -2.895154715	 -1.998406971	 -1.232084680
C	 -3.128531731	 -1.075855657	 0.693610387
H	 -2.696065454	 -1.908896886	 1.230697910
