23
0  1  0  1  0  1  11  12 -1.90834 -1.79843 -2.84168 -2.95159 -2.86942 -2.91865  1.87744  1.87754  1.87345 -2.11908 -0.55970  2.60092 -0.30156 -3.85875
N	 -4.579957567	 1.183901661	 0.903572980
C	 -4.864638311	 1.201067936	 -0.406151270
H	 -5.713178360	 0.602180157	 -0.714397820
C	 -4.143343062	 1.932385369	 -1.346042147
H	 -4.427601576	 1.903166640	 -2.388596334
C	 -3.059926529	 2.690703965	 -0.914515763
H	 -2.471137337	 3.266969012	 -1.614774262
C	 -2.748833693	 2.683142183	 0.440228376
H	 -1.912067274	 3.247239823	 0.826433292
C	 -3.533526894	 1.920115044	 1.301220029
H	 -3.311862897	 1.894998599	 2.361201246
C	 -0.115876434	 0.051929523	 -1.387497493
H	 -0.204979285	 0.091584474	 -2.464898066
C	 0.434033447	 1.128476535	 -0.694171733
H	 0.773937205	 2.002695713	 -1.233073027
C	 0.552118287	 1.075695630	 0.694171733
H	 0.984136510	 1.908710511	 1.232364002
C	 0.118391620	 -0.052690755	 1.387240449
H	 0.210273544	 -0.094383809	 2.464252824
C	 -0.436633730	 -1.127664626	 0.693864704
H	 -0.784940124	 -1.998406971	 1.232084680
C	 -0.551563109	 -1.075855657	 -0.693610387
H	 -0.984029385	 -1.908896886	 -1.230697910
