23
0  1  0  1  0  1  11  12 11.91958 13.31757  6.53129  5.13331  6.40750  5.65527 35.44966 35.44958 35.41263 12.52904 -29.17014 71.51845 -6.33077 -23.48851
N	 -2.179311225	 0.054918912	 2.723579180
C	 -1.564425294	 1.212586722	 3.003643370
H	 -2.212029351	 2.065758175	 3.166155463
C	 -0.182210396	 1.353434458	 3.093814186
H	 0.249638362	 2.317084573	 3.325030483
C	 0.618740995	 0.236455154	 2.879600275
H	 1.696310163	 0.306839432	 2.934434785
C	 -0.001810908	 -0.972199884	 2.585940698
H	 0.573963602	 -1.867821767	 2.401865761
C	 -1.392325185	 -1.010237767	 2.520491280
H	 -1.901178110	 -1.938691145	 2.291648606
C	 0.818746988	 0.864172340	 0.188286116
H	 1.466113611	 1.716667667	 0.344721407
C	 1.368997119	 -0.390523941	 -0.066698182
H	 2.443036367	 -0.511861940	 -0.110574439
C	 0.534378602	 -1.488493196	 -0.271888037
H	 0.960848252	 -2.461564217	 -0.475507491
C	 -0.849115613	 -1.330507345	 -0.219896434
H	 -1.497069424	 -2.181860285	 -0.379553211
C	 -1.399485456	 -0.076030202	 0.040434165
H	 -2.472686669	 0.044907778	 0.093382057
C	 -0.565292303	 1.021403360	 0.242279208
H	 -0.992556673	 1.993661308	 0.446258168
