23
0  1  0  1  0  1  11  12 -1.67620 -1.60608 -2.41036 -2.48048 -2.43201 -2.46145  1.18768  1.18728  1.18391 -1.88052 -0.17884  1.42829 -0.19691 -2.93305
N	 -4.762090487	 1.275895730	 0.903583081
C	 -5.046771231	 1.293062005	 -0.406141169
H	 -5.895311280	 0.694174226	 -0.714387719
C	 -4.325475982	 2.024379438	 -1.346032046
H	 -4.609734496	 1.995160709	 -2.388586233
C	 -3.242059449	 2.782698034	 -0.914505662
H	 -2.653270257	 3.358963081	 -1.614764161
C	 -2.930966613	 2.775136252	 0.440238477
H	 -2.094200194	 3.339233892	 0.826443393
C	 -3.715659814	 2.012109113	 1.301230130
H	 -3.493995817	 1.986992668	 2.361211347
C	 -0.115876434	 0.051929523	 -1.387497493
H	 -0.204979285	 0.091584474	 -2.464898066
C	 0.434033447	 1.128476535	 -0.694171733
H	 0.773937205	 2.002695713	 -1.233073027
C	 0.552118287	 1.075695630	 0.694171733
H	 0.984136510	 1.908710511	 1.232364002
C	 0.118391620	 -0.052690755	 1.387240449
H	 0.210273544	 -0.094383809	 2.464252824
C	 -0.436633730	 -1.127664626	 0.693864704
H	 -0.784940124	 -1.998406971	 1.232084680
C	 -0.551563109	 -1.075855657	 -0.693610387
H	 -0.984029385	 -1.908896886	 -1.230697910
