23
0  1  0  1  0  1  11  12 55.05946 57.61866 48.69390 46.13470 48.52670 47.10730 88.51741 88.51432 88.42774 52.18784 -73.31406 181.62930 -21.08607 -35.04133
N	 -0.875289644	 -1.025507698	 -0.922481622
C	 0.000516253	 -1.152981640	 0.084210904
H	 0.531718550	 -2.095903695	 0.133453572
C	 0.246159993	 -0.158994540	 1.027680926
H	 0.967978890	 -0.326427959	 1.814776473
C	 -0.453804015	 1.039436895	 0.933521587
H	 -0.295736574	 1.832891660	 1.650850173
C	 -1.367770058	 1.188434617	 -0.103123658
H	 -1.944185888	 2.095340713	 -0.216280848
C	 -1.540146428	 0.135287130	 -0.997789640
H	 -2.247260774	 0.224367650	 -1.813497864
C	 -3.564218405	 0.051929523	 1.387497493
H	 -3.475115555	 0.091584474	 2.464898066
C	 -4.114128287	 1.128476535	 0.694171733
H	 -4.454032044	 2.002695713	 1.233073027
C	 -4.232213127	 1.075695630	 -0.694171733
H	 -4.664231349	 1.908710511	 -1.232364002
C	 -3.798486460	 -0.052690755	 -1.387240449
H	 -3.890368384	 -0.094383809	 -2.464252824
C	 -3.243461110	 -1.127664626	 -0.693864704
H	 -2.895154715	 -1.998406971	 -1.232084680
C	 -3.128531731	 -1.075855657	 0.693610387
H	 -2.696065454	 -1.908896886	 1.230697910
