23
0  1  0  1  0  1  11  12 57.10517 59.64945 50.66389 48.11961 50.49559 49.08369 90.67516 90.67295 90.58219 54.55363 -73.43206 181.12783 -18.10310 -35.03905
N	 -2.411565057	 -1.025507698	 2.210514816
C	 -3.287370955	 -1.152981640	 1.203822290
H	 -3.818573252	 -2.095903695	 1.154579622
C	 -3.533014695	 -0.158994540	 0.260352268
H	 -4.254833592	 -0.326427959	 -0.526743279
C	 -2.833050687	 1.039436895	 0.354511607
H	 -2.991118127	 1.832891660	 -0.362816979
C	 -1.919084642	 1.188434617	 1.391156852
H	 -1.342668813	 2.095340713	 1.504314042
C	 -1.746708274	 0.135287130	 2.285822834
H	 -1.039593928	 0.224367650	 3.101531058
C	 -0.115876434	 0.051929523	 -1.387497493
H	 -0.204979285	 0.091584474	 -2.464898066
C	 0.434033447	 1.128476535	 -0.694171733
H	 0.773937205	 2.002695713	 -1.233073027
C	 0.552118287	 1.075695630	 0.694171733
H	 0.984136510	 1.908710511	 1.232364002
C	 0.118391620	 -0.052690755	 1.387240449
H	 0.210273544	 -0.094383809	 2.464252824
C	 -0.436633730	 -1.127664626	 0.693864704
H	 -0.784940124	 -1.998406971	 1.232084680
C	 -0.551563109	 -1.075855657	 -0.693610387
H	 -0.984029385	 -1.908896886	 -1.230697910
