23
0  1  0  1  0  1  11  12 11.63318 12.74898  8.26541  7.14960  8.16235  7.56943 29.17289 29.17027 29.15266 11.65755 -23.69774 59.73483 -6.27064 -18.10889
N	 -0.444719191	 -1.025530556	 -0.922502310
C	 0.431086706	 -1.153004498	 0.084190216
H	 0.962289003	 -2.095926553	 0.133432884
C	 0.676730446	 -0.159017398	 1.027660238
H	 1.398549343	 -0.326450817	 1.814755785
C	 -0.023233562	 1.039414037	 0.933500899
H	 0.134833879	 1.832868802	 1.650829485
C	 -0.937199605	 1.188411759	 -0.103144346
H	 -1.513615435	 2.095317855	 -0.216301536
C	 -1.109575975	 0.135264272	 -0.997810328
H	 -1.816690321	 0.224344792	 -1.813518552
C	 -3.564218405	 0.051929523	 1.387497493
H	 -3.475115555	 0.091584474	 2.464898066
C	 -4.114128287	 1.128476535	 0.694171733
H	 -4.454032044	 2.002695713	 1.233073027
C	 -4.232213127	 1.075695630	 -0.694171733
H	 -4.664231349	 1.908710511	 -1.232364002
C	 -3.798486460	 -0.052690755	 -1.387240449
H	 -3.890368384	 -0.094383809	 -2.464252824
C	 -3.243461110	 -1.127664626	 -0.693864704
H	 -2.895154715	 -1.998406971	 -1.232084680
C	 -3.128531731	 -1.075855657	 0.693610387
H	 -2.696065454	 -1.908896886	 1.230697910
