23
0  1  0  1  0  1  11  12 -2.77684 -2.61035 -3.70359 -3.87007 -3.73893 -3.81453  1.29625  1.29807  1.29858 -2.95815 -1.69085  3.55229 -0.46698 -4.35261
N	 1.660168629	 -0.748148129	 -0.903572980
C	 1.944849372	 -0.730981855	 0.406151270
H	 2.793389422	 -1.329869634	 0.714397820
C	 1.223554123	 0.000335578	 1.346042147
H	 1.507812637	 -0.028883151	 2.388596334
C	 0.140137590	 0.758654174	 0.914515763
H	 -0.448651601	 1.334919221	 1.614774262
C	 -0.170955245	 0.751092392	 -0.440228376
H	 -1.007721665	 1.315190032	 -0.826433292
C	 0.613737956	 -0.011934747	 -1.301220029
H	 0.392073958	 -0.037051192	 -2.361201246
C	 -3.564218405	 0.051929523	 1.387497493
H	 -3.475115555	 0.091584474	 2.464898066
C	 -4.114128287	 1.128476535	 0.694171733
H	 -4.454032044	 2.002695713	 1.233073027
C	 -4.232213127	 1.075695630	 -0.694171733
H	 -4.664231349	 1.908710511	 -1.232364002
C	 -3.798486460	 -0.052690755	 -1.387240449
H	 -3.890368384	 -0.094383809	 -2.464252824
C	 -3.243461110	 -1.127664626	 -0.693864704
H	 -2.895154715	 -1.998406971	 -1.232084680
C	 -3.128531731	 -1.075855657	 0.693610387
H	 -2.696065454	 -1.908896886	 1.230697910
