23
0  1  0  1  0  1  11  12  0.00981  0.44945 -1.98957 -2.42921 -2.04782 -2.27378  9.52728  9.52539  9.51243 -0.05008 -6.24289 17.24903 -1.44076 -9.61546
N	 -0.319097725	 -1.028187398	 -0.903542675
C	 -0.161890924	 -1.266145016	 0.406181575
H	 -0.256272929	 -2.300446145	 0.714428125
C	 0.110800927	 -0.275826291	 1.346072452
H	 0.227626022	 -0.536610749	 2.388626639
C	 0.225815829	 1.041599248	 0.914546068
H	 0.430481403	 1.839638168	 1.614804567
C	 0.063720716	 1.307232655	 -0.440198071
H	 0.133860392	 2.313942452	 -0.826402987
C	 -0.204733570	 0.246154840	 -1.301189724
H	 -0.337317048	 0.425563270	 -2.361170941
C	 -3.564218405	 0.051929523	 1.387497493
H	 -3.475115555	 0.091584474	 2.464898066
C	 -4.114128287	 1.128476535	 0.694171733
H	 -4.454032044	 2.002695713	 1.233073027
C	 -4.232213127	 1.075695630	 -0.694171733
H	 -4.664231349	 1.908710511	 -1.232364002
C	 -3.798486460	 -0.052690755	 -1.387240449
H	 -3.890368384	 -0.094383809	 -2.464252824
C	 -3.243461110	 -1.127664626	 -0.693864704
H	 -2.895154715	 -1.998406971	 -1.232084680
C	 -3.128531731	 -1.075855657	 0.693610387
H	 -2.696065454	 -1.908896886	 1.230697910
