23
0  1  0  1  0  1  11  12 48.95380 51.37851 42.36765 39.94295 42.19118 40.86130 82.63843 82.63568 82.56428 47.37915 -68.69730 166.89457 -16.16842 -34.64970
N	 -3.312896652	 -1.025507698	 -0.645602984
C	 -2.878978300	 -1.152981640	 -1.907419403
H	 -3.101934047	 -2.095903695	 -2.392075421
C	 -2.184731163	 -0.158994540	 -2.591888133
H	 -1.863995873	 -0.326427959	 -3.610549409
C	 -1.916293539	 1.039436895	 -1.938621851
H	 -1.374102480	 1.832891660	 -2.434176563
C	 -2.357071633	 1.188434617	 -0.628781416
H	 -2.166860720	 2.095340713	 -0.073012070
C	 -3.045686918	 0.135287130	 -0.032166111
H	 -3.398553789	 0.224367650	 0.988066988
C	 -0.115876434	 0.051929523	 -1.387497493
H	 -0.204979285	 0.091584474	 -2.464898066
C	 0.434033447	 1.128476535	 -0.694171733
H	 0.773937205	 2.002695713	 -1.233073027
C	 0.552118287	 1.075695630	 0.694171733
H	 0.984136510	 1.908710511	 1.232364002
C	 0.118391620	 -0.052690755	 1.387240449
H	 0.210273544	 -0.094383809	 2.464252824
C	 -0.436633730	 -1.127664626	 0.693864704
H	 -0.784940124	 -1.998406971	 1.232084680
C	 -0.551563109	 -1.075855657	 -0.693610387
H	 -0.984029385	 -1.908896886	 -1.230697910
