23
0  1  0  1  0  1  11  12 -2.66298 -2.51247 -3.53513 -3.68564 -3.56873 -3.63675  1.25779  1.25950  1.25849 -2.85478 -1.41036  3.13916 -0.38155 -4.20202
N	 -3.813822598	 -2.960271666	 0.903572980
C	 -3.971029400	 -3.198229284	 -0.406151270
H	 -3.876647394	 -4.232530413	 -0.714397820
C	 -4.243721251	 -2.207910559	 -1.346042147
H	 -4.360546346	 -2.468695017	 -2.388596334
C	 -4.358736153	 -0.890485020	 -0.914515763
H	 -4.563401726	 -0.092446099	 -1.614774262
C	 -4.196641039	 -0.624851612	 0.440228376
H	 -4.266780716	 0.381858184	 0.826433292
C	 -3.928186753	 -1.685929428	 1.301220029
H	 -3.795603276	 -1.506520998	 2.361201246
C	 -0.115876434	 0.051929523	 -1.387497493
H	 -0.204979285	 0.091584474	 -2.464898066
C	 0.434033447	 1.128476535	 -0.694171733
H	 0.773937205	 2.002695713	 -1.233073027
C	 0.552118287	 1.075695630	 0.694171733
H	 0.984136510	 1.908710511	 1.232364002
C	 0.118391620	 -0.052690755	 1.387240449
H	 0.210273544	 -0.094383809	 2.464252824
C	 -0.436633730	 -1.127664626	 0.693864704
H	 -0.784940124	 -1.998406971	 1.232084680
C	 -0.551563109	 -1.075855657	 -0.693610387
H	 -0.984029385	 -1.908896886	 -1.230697910
