23
0  1  0  1  0  1  11  12 -2.30687 -2.09463 -3.54787 -3.76010 -3.58870 -3.68911  3.22177  3.22295  3.21983 -2.50952 -2.19952  6.08466 -0.62986 -5.76480
N	 -4.435206844	 -1.025576272	 -1.197574291
C	 -4.001288492	 -1.153050214	 -2.459390710
H	 -4.224244239	 -2.095972269	 -2.944046728
C	 -3.307041355	 -0.159063114	 -3.143859440
H	 -2.986306065	 -0.326496533	 -4.162520716
C	 -3.038603731	 1.039368321	 -2.490593158
H	 -2.496412672	 1.832823086	 -2.986147870
C	 -3.479381825	 1.188366043	 -1.180752723
H	 -3.289170912	 2.095272139	 -0.624983377
C	 -4.167997110	 0.135218556	 -0.584137418
H	 -4.520863981	 0.224299076	 0.436095681
C	 -0.115876434	 0.051929523	 -1.387497493
H	 -0.204979285	 0.091584474	 -2.464898066
C	 0.434033447	 1.128476535	 -0.694171733
H	 0.773937205	 2.002695713	 -1.233073027
C	 0.552118287	 1.075695630	 0.694171733
H	 0.984136510	 1.908710511	 1.232364002
C	 0.118391620	 -0.052690755	 1.387240449
H	 0.210273544	 -0.094383809	 2.464252824
C	 -0.436633730	 -1.127664626	 0.693864704
H	 -0.784940124	 -1.998406971	 1.232084680
C	 -0.551563109	 -1.075855657	 -0.693610387
H	 -0.984029385	 -1.908896886	 -1.230697910
