23
0  1  0  1  0  1  11  12 -2.59011 -2.12539 -5.16521 -5.62993 -5.23159 -5.46391  7.87614  7.87714  7.87232 -2.70627 -6.30478 16.00110 -1.59391 -10.80867
N	 -2.324467453	 0.125944924	 3.251419435
C	 -1.709581522	 1.283612734	 3.531483625
H	 -2.357185579	 2.136784187	 3.693995718
C	 -0.327366624	 1.424460470	 3.621654441
H	 0.104482134	 2.388110585	 3.852870738
C	 0.473584767	 0.307481166	 3.407440530
H	 1.551153935	 0.377865444	 3.462275040
C	 -0.146967136	 -0.901173872	 3.113780953
H	 0.428807374	 -1.796795755	 2.929706016
C	 -1.537481413	 -0.939211755	 3.048331535
H	 -2.046334338	 -1.867665133	 2.819488861
C	 0.818746988	 0.864172340	 0.188286116
H	 1.466113611	 1.716667667	 0.344721407
C	 1.368997119	 -0.390523941	 -0.066698182
H	 2.443036367	 -0.511861940	 -0.110574439
C	 0.534378602	 -1.488493196	 -0.271888037
H	 0.960848252	 -2.461564217	 -0.475507491
C	 -0.849115613	 -1.330507345	 -0.219896434
H	 -1.497069424	 -2.181860285	 -0.379553211
C	 -1.399485456	 -0.076030202	 0.040434165
H	 -2.472686669	 0.044907778	 0.093382057
C	 -0.565292303	 1.021403360	 0.242279208
H	 -0.992556673	 1.993661308	 0.446258168
