23
0  1  0  1  0  1  11  12 -0.21952  0.24760 -2.24461 -2.71172 -2.30969 -2.54677  9.36253  9.36151  9.35049 -0.21292 -7.17490 18.54379 -1.76984 -9.81197
N	 -3.160351638	 -1.025553414	 2.578565675
C	 -4.036157536	 -1.153027356	 1.571873149
H	 -4.567359833	 -2.095949411	 1.522630481
C	 -4.281801276	 -0.159040256	 0.628403127
H	 -5.003620173	 -0.326473675	 -0.158692420
C	 -3.581837268	 1.039391179	 0.722562466
H	 -3.739904708	 1.832845944	 0.005233880
C	 -2.667871223	 1.188388901	 1.759207711
H	 -2.091455394	 2.095294997	 1.872364901
C	 -2.495494855	 0.135241414	 2.653873693
H	 -1.788380509	 0.224321934	 3.469581917
C	 -0.115876434	 0.051929523	 -1.387497493
H	 -0.204979285	 0.091584474	 -2.464898066
C	 0.434033447	 1.128476535	 -0.694171733
H	 0.773937205	 2.002695713	 -1.233073027
C	 0.552118287	 1.075695630	 0.694171733
H	 0.984136510	 1.908710511	 1.232364002
C	 0.118391620	 -0.052690755	 1.387240449
H	 0.210273544	 -0.094383809	 2.464252824
C	 -0.436633730	 -1.127664626	 0.693864704
H	 -0.784940124	 -1.998406971	 1.232084680
C	 -0.551563109	 -1.075855657	 -0.693610387
H	 -0.984029385	 -1.908896886	 -1.230697910
