23
0  1  0  1  0  1  11  12 -2.03741 -1.94946 -2.76963 -2.85759 -2.79295 -2.83125  0.91817  0.91724  0.91504 -2.24970 -0.67675  1.77652 -0.24405 -3.10541
N	 -3.909138218	 -1.025599130	 2.946616533
C	 -4.784944116	 -1.153073072	 1.939924007
H	 -5.316146413	 -2.095995127	 1.890681339
C	 -5.030587856	 -0.159085972	 0.996453985
H	 -5.752406753	 -0.326519391	 0.209358438
C	 -4.330623848	 1.039345463	 1.090613324
H	 -4.488691288	 1.832800228	 0.373284738
C	 -3.416657803	 1.188343185	 2.127258569
H	 -2.840241974	 2.095249281	 2.240415759
C	 -3.244281435	 0.135195698	 3.021924551
H	 -2.537167089	 0.224276218	 3.837632775
C	 -0.115876434	 0.051929523	 -1.387497493
H	 -0.204979285	 0.091584474	 -2.464898066
C	 0.434033447	 1.128476535	 -0.694171733
H	 0.773937205	 2.002695713	 -1.233073027
C	 0.552118287	 1.075695630	 0.694171733
H	 0.984136510	 1.908710511	 1.232364002
C	 0.118391620	 -0.052690755	 1.387240449
H	 0.210273544	 -0.094383809	 2.464252824
C	 -0.436633730	 -1.127664626	 0.693864704
H	 -0.784940124	 -1.998406971	 1.232084680
C	 -0.551563109	 -1.075855657	 -0.693610387
H	 -0.984029385	 -1.908896886	 -1.230697910
