23
0  1  0  1  0  1  11  12 -2.28404 -2.14325 -3.24773 -3.38852 -3.27916 -3.34313  1.85735  1.85858  1.85681 -2.50067 -1.18023  3.41823 -0.38992 -4.34875
N	 -4.622258543	 -1.025587701	 -1.289569509
C	 -4.188340191	 -1.153061643	 -2.551385928
H	 -4.411295938	 -2.095983698	 -3.036041946
C	 -3.494093054	 -0.159074543	 -3.235854658
H	 -3.173357764	 -0.326507962	 -4.254515934
C	 -3.225655430	 1.039356892	 -2.582588376
H	 -2.683464371	 1.832811657	 -3.078143088
C	 -3.666433524	 1.188354614	 -1.272747941
H	 -3.476222611	 2.095260710	 -0.716978595
C	 -4.355048809	 0.135207127	 -0.676132636
H	 -4.707915680	 0.224287647	 0.344100463
C	 -0.115876434	 0.051929523	 -1.387497493
H	 -0.204979285	 0.091584474	 -2.464898066
C	 0.434033447	 1.128476535	 -0.694171733
H	 0.773937205	 2.002695713	 -1.233073027
C	 0.552118287	 1.075695630	 0.694171733
H	 0.984136510	 1.908710511	 1.232364002
C	 0.118391620	 -0.052690755	 1.387240449
H	 0.210273544	 -0.094383809	 2.464252824
C	 -0.436633730	 -1.127664626	 0.693864704
H	 -0.784940124	 -1.998406971	 1.232084680
C	 -0.551563109	 -1.075855657	 -0.693610387
H	 -0.984029385	 -1.908896886	 -1.230697910
