23
0  1  0  1  0  1  11  12 -3.34094 -3.11717 -4.94662 -5.17040 -4.99120 -5.09563  2.85102  2.85135  2.84938 -3.62505 -2.17666  5.73560 -0.66240 -6.52159
N	 -2.421238271	 0.173295598	 3.603312937
C	 -1.806352340	 1.330963408	 3.883377127
H	 -2.453956397	 2.184134861	 4.045889220
C	 -0.424137442	 1.471811144	 3.973547943
H	 0.007711316	 2.435461259	 4.204764240
C	 0.376813949	 0.354831840	 3.759334032
H	 1.454383117	 0.425216118	 3.814168542
C	 -0.243737954	 -0.853823198	 3.465674455
H	 0.332036556	 -1.749445081	 3.281599518
C	 -1.634252231	 -0.891861081	 3.400225037
H	 -2.143105156	 -1.820314459	 3.171382363
C	 0.818746988	 0.864172340	 0.188286116
H	 1.466113611	 1.716667667	 0.344721407
C	 1.368997119	 -0.390523941	 -0.066698182
H	 2.443036367	 -0.511861940	 -0.110574439
C	 0.534378602	 -1.488493196	 -0.271888037
H	 0.960848252	 -2.461564217	 -0.475507491
C	 -0.849115613	 -1.330507345	 -0.219896434
H	 -1.497069424	 -2.181860285	 -0.379553211
C	 -1.399485456	 -0.076030202	 0.040434165
H	 -2.472686669	 0.044907778	 0.093382057
C	 -0.565292303	 1.021403360	 0.242279208
H	 -0.992556673	 1.993661308	 0.446258168
