23
0  1  0  1  0  1  11  12 -2.28549 -2.15163 -3.21840 -3.35227 -3.24843 -3.30974  1.64458  1.64382  1.64078 -2.50534 -1.22350  3.21039 -0.38614 -4.10610
N	 -3.721941573	 -1.025587701	 2.854603819
C	 -4.597747471	 -1.153061643	 1.847911293
H	 -5.128949768	 -2.095983698	 1.798668625
C	 -4.843391211	 -0.159074543	 0.904441271
H	 -5.565210108	 -0.326507962	 0.117345724
C	 -4.143427203	 1.039356892	 0.998600610
H	 -4.301494643	 1.832811657	 0.281272024
C	 -3.229461158	 1.188354614	 2.035245855
H	 -2.653045329	 2.095260710	 2.148403045
C	 -3.057084790	 0.135207127	 2.929911837
H	 -2.349970444	 0.224287647	 3.745620061
C	 -0.115876434	 0.051929523	 -1.387497493
H	 -0.204979285	 0.091584474	 -2.464898066
C	 0.434033447	 1.128476535	 -0.694171733
H	 0.773937205	 2.002695713	 -1.233073027
C	 0.552118287	 1.075695630	 0.694171733
H	 0.984136510	 1.908710511	 1.232364002
C	 0.118391620	 -0.052690755	 1.387240449
H	 0.210273544	 -0.094383809	 2.464252824
C	 -0.436633730	 -1.127664626	 0.693864704
H	 -0.784940124	 -1.998406971	 1.232084680
C	 -0.551563109	 -1.075855657	 -0.693610387
H	 -0.984029385	 -1.908896886	 -1.230697910
