23
0  1  0  1  0  1  11  12 -0.13865  0.34304 -2.41496 -2.89665 -2.48118 -2.72562 10.12675 10.12672 10.11664 -0.01813 -7.34988 19.51835 -1.82925 -10.35736
N	 0.692946657	 -1.025553414	 -0.642458822
C	 0.259028304	 -1.153027356	 0.619357596
H	 0.481984051	 -2.095949411	 1.104013614
C	 -0.435218833	 -0.159040256	 1.303826326
H	 -0.755954123	 -0.326473675	 2.322487602
C	 -0.703656457	 1.039391179	 0.650560044
H	 -1.245847515	 1.832845944	 1.146114757
C	 -0.262878361	 1.188388901	 -0.659280390
H	 -0.453089275	 2.095294997	 -1.215049737
C	 0.425736922	 0.135241414	 -1.255895696
H	 0.778603793	 0.224321934	 -2.276128795
C	 -3.564218405	 0.051929523	 1.387497493
H	 -3.475115555	 0.091584474	 2.464898066
C	 -4.114128287	 1.128476535	 0.694171733
H	 -4.454032044	 2.002695713	 1.233073027
C	 -4.232213127	 1.075695630	 -0.694171733
H	 -4.664231349	 1.908710511	 -1.232364002
C	 -3.798486460	 -0.052690755	 -1.387240449
H	 -3.890368384	 -0.094383809	 -2.464252824
C	 -3.243461110	 -1.127664626	 -0.693864704
H	 -2.895154715	 -1.998406971	 -1.232084680
C	 -3.128531731	 -1.075855657	 0.693610387
H	 -2.696065454	 -1.908896886	 1.230697910
