23
0  1  0  1  0  1  11  12 -2.53679 -2.32012 -3.59916 -3.81582 -3.64157 -3.74341  2.46633  2.46575  2.46314 -2.72971 -2.45566  5.80495 -0.73591 -5.34309
N	 0.416421715	 -1.025576272	 -0.922543684
C	 1.292227612	 -1.153050214	 0.084148842
H	 1.823429909	 -2.095972269	 0.133391510
C	 1.537871352	 -0.159063114	 1.027618864
H	 2.259690249	 -0.326496533	 1.814714411
C	 0.837907344	 1.039368321	 0.933459525
H	 0.995974785	 1.832823086	 1.650788111
C	 -0.076058699	 1.188366043	 -0.103185720
H	 -0.652474529	 2.095272139	 -0.216342910
C	 -0.248435069	 0.135218556	 -0.997851702
H	 -0.955549415	 0.224299076	 -1.813559926
C	 -3.564218405	 0.051929523	 1.387497493
H	 -3.475115555	 0.091584474	 2.464898066
C	 -4.114128287	 1.128476535	 0.694171733
H	 -4.454032044	 2.002695713	 1.233073027
C	 -4.232213127	 1.075695630	 -0.694171733
H	 -4.664231349	 1.908710511	 -1.232364002
C	 -3.798486460	 -0.052690755	 -1.387240449
H	 -3.890368384	 -0.094383809	 -2.464252824
C	 -3.243461110	 -1.127664626	 -0.693864704
H	 -2.895154715	 -1.998406971	 -1.232084680
C	 -3.128531731	 -1.075855657	 0.693610387
H	 -2.696065454	 -1.908896886	 1.230697910
