23
0  1  0  1  0  1  11  12 -1.96904 -1.79889 -3.16385 -3.33400 -3.19942 -3.27955  3.07495  3.07534  3.06983 -2.15931 -1.28738  4.71087 -0.47803 -5.10477
N	 -4.397824646	 1.091907592	 0.903562878
C	 -4.682505390	 1.109073867	 -0.406161372
H	 -5.531045439	 0.510186088	 -0.714407922
C	 -3.961210141	 1.840391300	 -1.346052249
H	 -4.245468655	 1.811172571	 -2.388606436
C	 -2.877793608	 2.598709896	 -0.914525865
H	 -2.289004416	 3.174974943	 -1.614784364
C	 -2.566700772	 2.591148114	 0.440218274
H	 -1.729934353	 3.155245754	 0.826423190
C	 -3.351393973	 1.828120975	 1.301209927
H	 -3.129729976	 1.803004530	 2.361191144
C	 -0.115876434	 0.051929523	 -1.387497493
H	 -0.204979285	 0.091584474	 -2.464898066
C	 0.434033447	 1.128476535	 -0.694171733
H	 0.773937205	 2.002695713	 -1.233073027
C	 0.552118287	 1.075695630	 0.694171733
H	 0.984136510	 1.908710511	 1.232364002
C	 0.118391620	 -0.052690755	 1.387240449
H	 0.210273544	 -0.094383809	 2.464252824
C	 -0.436633730	 -1.127664626	 0.693864704
H	 -0.784940124	 -1.998406971	 1.232084680
C	 -0.551563109	 -1.075855657	 -0.693610387
H	 -0.984029385	 -1.908896886	 -1.230697910
