23
0  1  0  1  0  1  11  12 -2.48330 -2.37295 -3.20120 -3.31155 -3.22791 -3.27555  0.52775  0.52970  0.53140 -2.67817 -1.06425  1.94841 -0.29913 -3.26320
N	 1.878506593	 -0.748156431	 -0.903583081
C	 2.163187336	 -0.730990157	 0.406141169
H	 3.011727386	 -1.329877936	 0.714387719
C	 1.441892087	 0.000327276	 1.346032046
H	 1.726150601	 -0.028891453	 2.388586233
C	 0.358475554	 0.758645872	 0.914505662
H	 -0.230313637	 1.334910919	 1.614764161
C	 0.047382719	 0.751084090	 -0.440238477
H	 -0.789383701	 1.315181730	 -0.826443393
C	 0.832075920	 -0.011943049	 -1.301230130
H	 0.610411922	 -0.037059494	 -2.361211347
C	 -3.564218405	 0.051929523	 1.387497493
H	 -3.475115555	 0.091584474	 2.464898066
C	 -4.114128287	 1.128476535	 0.694171733
H	 -4.454032044	 2.002695713	 1.233073027
C	 -4.232213127	 1.075695630	 -0.694171733
H	 -4.664231349	 1.908710511	 -1.232364002
C	 -3.798486460	 -0.052690755	 -1.387240449
H	 -3.890368384	 -0.094383809	 -2.464252824
C	 -3.243461110	 -1.127664626	 -0.693864704
H	 -2.895154715	 -1.998406971	 -1.232084680
C	 -3.128531731	 -1.075855657	 0.693610387
H	 -2.696065454	 -1.908896886	 1.230697910
