23
0  1  0  1  0  1  11  12 11.72660 12.81312  8.17877  7.09224  8.07302  7.49353 29.52223 29.52004 29.49046 11.96764 -23.15083 58.65449 -5.40737 -18.12865
N	 -2.785958347	 -1.025530556	 2.394540246
C	 -3.661764245	 -1.153004498	 1.387847720
H	 -4.192966542	 -2.095926553	 1.338605052
C	 -3.907407985	 -0.159017398	 0.444377698
H	 -4.629226882	 -0.326450817	 -0.342717849
C	 -3.207443977	 1.039414037	 0.538537037
H	 -3.365511417	 1.832868802	 -0.178791549
C	 -2.293477932	 1.188411759	 1.575182282
H	 -1.717062103	 2.095317855	 1.688339472
C	 -2.121101564	 0.135264272	 2.469848264
H	 -1.413987218	 0.224344792	 3.285556488
C	 -0.115876434	 0.051929523	 -1.387497493
H	 -0.204979285	 0.091584474	 -2.464898066
C	 0.434033447	 1.128476535	 -0.694171733
H	 0.773937205	 2.002695713	 -1.233073027
C	 0.552118287	 1.075695630	 0.694171733
H	 0.984136510	 1.908710511	 1.232364002
C	 0.118391620	 -0.052690755	 1.387240449
H	 0.210273544	 -0.094383809	 2.464252824
C	 -0.436633730	 -1.127664626	 0.693864704
H	 -0.784940124	 -1.998406971	 1.232084680
C	 -0.551563109	 -1.075855657	 -0.693610387
H	 -0.984029385	 -1.908896886	 -1.230697910
