23
0  1  0  1  0  1  11  12 11.67753 12.70692  8.27382  7.24444  8.18175  7.62594 29.31723 29.31461 29.28160 12.01628 -21.25659 55.03747 -4.19290 -17.57170
N	 -0.722561998	 -1.028164414	 -0.903522471
C	 -0.565355197	 -1.266122032	 0.406201779
H	 -0.659737202	 -2.300423161	 0.714448329
C	 -0.292663346	 -0.275803307	 1.346092656
H	 -0.175838251	 -0.536587765	 2.388646843
C	 -0.177648444	 1.041622232	 0.914566272
H	 0.027017130	 1.839661152	 1.614824771
C	 -0.339743557	 1.307255639	 -0.440177867
H	 -0.269603881	 2.313965436	 -0.826382783
C	 -0.608197843	 0.246177824	 -1.301169520
H	 -0.740781321	 0.425586254	 -2.361150737
C	 -3.564218405	 0.051929523	 1.387497493
H	 -3.475115555	 0.091584474	 2.464898066
C	 -4.114128287	 1.128476535	 0.694171733
H	 -4.454032044	 2.002695713	 1.233073027
C	 -4.232213127	 1.075695630	 -0.694171733
H	 -4.664231349	 1.908710511	 -1.232364002
C	 -3.798486460	 -0.052690755	 -1.387240449
H	 -3.890368384	 -0.094383809	 -2.464252824
C	 -3.243461110	 -1.127664626	 -0.693864704
H	 -2.895154715	 -1.998406971	 -1.232084680
C	 -3.128531731	 -1.075855657	 0.693610387
H	 -2.696065454	 -1.908896886	 1.230697910
