23
0  1  0  1  0  1  11  12 -2.03413 -1.91326 -2.96806 -3.08893 -2.99600 -3.05139  1.89894  1.89808  1.89414 -2.28845 -0.78128  2.89866 -0.33730 -4.06853
N	 0.286098683	 -1.028221875	 -0.903572980
C	 0.443305484	 -1.266179493	 0.406151270
H	 0.348923479	 -2.300480622	 0.714397820
C	 0.715997335	 -0.275860768	 1.346042147
H	 0.832822430	 -0.536645226	 2.388596334
C	 0.831012237	 1.041564771	 0.914515763
H	 1.035677811	 1.839603691	 1.614774262
C	 0.668917124	 1.307198178	 -0.440228376
H	 0.739056800	 2.313907975	 -0.826433292
C	 0.400462838	 0.246120363	 -1.301220029
H	 0.267879360	 0.425528793	 -2.361201246
C	 -3.564218405	 0.051929523	 1.387497493
H	 -3.475115555	 0.091584474	 2.464898066
C	 -4.114128287	 1.128476535	 0.694171733
H	 -4.454032044	 2.002695713	 1.233073027
C	 -4.232213127	 1.075695630	 -0.694171733
H	 -4.664231349	 1.908710511	 -1.232364002
C	 -3.798486460	 -0.052690755	 -1.387240449
H	 -3.890368384	 -0.094383809	 -2.464252824
C	 -3.243461110	 -1.127664626	 -0.693864704
H	 -2.895154715	 -1.998406971	 -1.232084680
C	 -3.128531731	 -1.075855657	 0.693610387
H	 -2.696065454	 -1.908896886	 1.230697910
