23
0  1  0  1  0  1  11  12 -2.29143 -2.14636 -3.32497 -3.47004 -3.35651 -3.42319  1.99324  1.99366  1.99118 -2.48636 -1.22645  3.63133 -0.42974 -4.46149
N	 1.306091428	 -1.025587701	 -0.642480281
C	 0.872173075	 -1.153061643	 0.619336137
H	 1.095128822	 -2.095983698	 1.103992155
C	 0.177925938	 -0.159074543	 1.303804867
H	 -0.142809352	 -0.326507962	 2.322466143
C	 -0.090511686	 1.039356892	 0.650538585
H	 -0.632702744	 1.832811657	 1.146093298
C	 0.350266410	 1.188354614	 -0.659301849
H	 0.160055496	 2.095260710	 -1.215071196
C	 1.038881693	 0.135207127	 -1.255917155
H	 1.391748564	 0.224287647	 -2.276150254
C	 -3.564218405	 0.051929523	 1.387497493
H	 -3.475115555	 0.091584474	 2.464898066
C	 -4.114128287	 1.128476535	 0.694171733
H	 -4.454032044	 2.002695713	 1.233073027
C	 -4.232213127	 1.075695630	 -0.694171733
H	 -4.664231349	 1.908710511	 -1.232364002
C	 -3.798486460	 -0.052690755	 -1.387240449
H	 -3.890368384	 -0.094383809	 -2.464252824
C	 -3.243461110	 -1.127664626	 -0.693864704
H	 -2.895154715	 -1.998406971	 -1.232084680
C	 -3.128531731	 -1.075855657	 0.693610387
H	 -2.696065454	 -1.908896886	 1.230697910
