23
0  1  0  1  0  1  11  12 -2.20402 -2.10907 -2.83791 -2.93286 -2.86248 -2.90328  0.54471  0.54516  0.54491 -2.40070 -0.85562  1.73827 -0.28694 -2.99641
N	 0.846992168	 -1.025599130	 -0.922564371
C	 1.722798065	 -1.153073072	 0.084128155
H	 2.254000362	 -2.095995127	 0.133370823
C	 1.968441805	 -0.159085972	 1.027598177
H	 2.690260702	 -0.326519391	 1.814693724
C	 1.268477797	 1.039345463	 0.933438838
H	 1.426545238	 1.832800228	 1.650767424
C	 0.354511754	 1.188343185	 -0.103206407
H	 -0.221904076	 2.095249281	 -0.216363597
C	 0.182135384	 0.135195698	 -0.997872389
H	 -0.524978962	 0.224276218	 -1.813580613
C	 -3.564218405	 0.051929523	 1.387497493
H	 -3.475115555	 0.091584474	 2.464898066
C	 -4.114128287	 1.128476535	 0.694171733
H	 -4.454032044	 2.002695713	 1.233073027
C	 -4.232213127	 1.075695630	 -0.694171733
H	 -4.664231349	 1.908710511	 -1.232364002
C	 -3.798486460	 -0.052690755	 -1.387240449
H	 -3.890368384	 -0.094383809	 -2.464252824
C	 -3.243461110	 -1.127664626	 -0.693864704
H	 -2.895154715	 -1.998406971	 -1.232084680
C	 -3.128531731	 -1.075855657	 0.693610387
H	 -2.696065454	 -1.908896886	 1.230697910
