23
0  1  0  1  0  1  11  12 -1.57372 -1.28593 -3.11472 -3.40251 -3.16055 -3.30387  5.46967  5.46826  5.46013 -1.76235 -3.28538  9.57101 -0.86564 -7.18234
N	 -0.117365589	 -1.028198891	 -0.903552776
C	 0.039841212	 -1.266156509	 0.406171474
H	 -0.054540793	 -2.300457638	 0.714418024
C	 0.312533063	 -0.275837784	 1.346062351
H	 0.429358158	 -0.536622242	 2.388616538
C	 0.427547965	 1.041587755	 0.914535967
H	 0.632213539	 1.839626675	 1.614794466
C	 0.265452852	 1.307221162	 -0.440208172
H	 0.335592528	 2.313930959	 -0.826413088
C	 -0.003001434	 0.246143347	 -1.301199825
H	 -0.135584912	 0.425551777	 -2.361181042
C	 -3.564218405	 0.051929523	 1.387497493
H	 -3.475115555	 0.091584474	 2.464898066
C	 -4.114128287	 1.128476535	 0.694171733
H	 -4.454032044	 2.002695713	 1.233073027
C	 -4.232213127	 1.075695630	 -0.694171733
H	 -4.664231349	 1.908710511	 -1.232364002
C	 -3.798486460	 -0.052690755	 -1.387240449
H	 -3.890368384	 -0.094383809	 -2.464252824
C	 -3.243461110	 -1.127664626	 -0.693864704
H	 -2.895154715	 -1.998406971	 -1.232084680
C	 -3.128531731	 -1.075855657	 0.693610387
H	 -2.696065454	 -1.908896886	 1.230697910
