23
0  1  0  1  0  1  11  12 -0.40205  0.08765 -2.25739 -2.74709 -2.32442 -2.57156  8.89440  8.89245  8.88585 -0.44279 -7.55570 18.90303 -2.06816 -9.72195
N	 -0.014148738	 -1.025553414	 -0.922522997
C	 0.861657159	 -1.153027356	 0.084169529
H	 1.392859456	 -2.095949411	 0.133412197
C	 1.107300899	 -0.159040256	 1.027639551
H	 1.829119796	 -0.326473675	 1.814735098
C	 0.407336891	 1.039391179	 0.933480212
H	 0.565404332	 1.832845944	 1.650808798
C	 -0.506629152	 1.188388901	 -0.103165033
H	 -1.083044982	 2.095294997	 -0.216322223
C	 -0.679005522	 0.135241414	 -0.997831015
H	 -1.386119868	 0.224321934	 -1.813539239
C	 -3.564218405	 0.051929523	 1.387497493
H	 -3.475115555	 0.091584474	 2.464898066
C	 -4.114128287	 1.128476535	 0.694171733
H	 -4.454032044	 2.002695713	 1.233073027
C	 -4.232213127	 1.075695630	 -0.694171733
H	 -4.664231349	 1.908710511	 -1.232364002
C	 -3.798486460	 -0.052690755	 -1.387240449
H	 -3.890368384	 -0.094383809	 -2.464252824
C	 -3.243461110	 -1.127664626	 -0.693864704
H	 -2.895154715	 -1.998406971	 -1.232084680
C	 -3.128531731	 -1.075855657	 0.693610387
H	 -2.696065454	 -1.908896886	 1.230697910
