23
0  1  0  1  0  1  11  12 -0.32346  0.07256 -2.32492 -2.72094 -2.38250 -2.58327  8.80867  8.80853  8.79643 -0.28987 -5.11063 15.17448 -1.28800 -9.06572
N	 -4.033558805	 0.907919454	 0.903542675
C	 -4.318239549	 0.925085729	 -0.406181575
H	 -5.166779598	 0.326197950	 -0.714428125
C	 -3.596944300	 1.656403162	 -1.346072452
H	 -3.881202814	 1.627184433	 -2.388626639
C	 -2.513527767	 2.414721758	 -0.914546068
H	 -1.924738575	 2.990986805	 -1.614804567
C	 -2.202434931	 2.407159976	 0.440198071
H	 -1.365668512	 2.971257616	 0.826402987
C	 -2.987128132	 1.644132837	 1.301189724
H	 -2.765464135	 1.619016392	 2.361170941
C	 -0.115876434	 0.051929523	 -1.387497493
H	 -0.204979285	 0.091584474	 -2.464898066
C	 0.434033447	 1.128476535	 -0.694171733
H	 0.773937205	 2.002695713	 -1.233073027
C	 0.552118287	 1.075695630	 0.694171733
H	 0.984136510	 1.908710511	 1.232364002
C	 0.118391620	 -0.052690755	 1.387240449
H	 0.210273544	 -0.094383809	 2.464252824
C	 -0.436633730	 -1.127664626	 0.693864704
H	 -0.784940124	 -1.998406971	 1.232084680
C	 -0.551563109	 -1.075855657	 -0.693610387
H	 -0.984029385	 -1.908896886	 -1.230697910
