23
0  1  0  1  0  1  11  12 11.86363 13.06221  8.20777  7.00920  8.09537  7.45433 30.74707 30.74150 30.71046 12.39159 -24.06125 61.01993 -5.55103 -19.01606
N	 -2.841440708	 -2.500202350	 0.903522471
C	 -2.998647510	 -2.738159968	 -0.406201779
H	 -2.904265504	 -3.772461097	 -0.714448329
C	 -3.271339361	 -1.747841243	 -1.346092656
H	 -3.388164456	 -2.008625701	 -2.388646843
C	 -3.386354263	 -0.430415704	 -0.914566272
H	 -3.591019836	 0.367623217	 -1.614824771
C	 -3.224259149	 -0.164782296	 0.440177867
H	 -3.294398826	 0.841927500	 0.826382783
C	 -2.955804863	 -1.225860112	 1.301169520
H	 -2.823221386	 -1.046451682	 2.361150737
C	 -0.115876434	 0.051929523	 -1.387497493
H	 -0.204979285	 0.091584474	 -2.464898066
C	 0.434033447	 1.128476535	 -0.694171733
H	 0.773937205	 2.002695713	 -1.233073027
C	 0.552118287	 1.075695630	 0.694171733
H	 0.984136510	 1.908710511	 1.232364002
C	 0.118391620	 -0.052690755	 1.387240449
H	 0.210273544	 -0.094383809	 2.464252824
C	 -0.436633730	 -1.127664626	 0.693864704
H	 -0.784940124	 -1.998406971	 1.232084680
C	 -0.551563109	 -1.075855657	 -0.693610387
H	 -0.984029385	 -1.908896886	 -1.230697910
