23
0  1  0  1  0  1  11  12 -2.31982 -2.11704 -3.51799 -3.72077 -3.55667 -3.65340  2.93974  2.93918  2.93477 -2.51872 -2.21120  5.78028 -0.62841 -5.45939
N	 -3.534744928	 -1.025576272	 2.762591104
C	 -4.410550826	 -1.153050214	 1.755898578
H	 -4.941753123	 -2.095972269	 1.706655910
C	 -4.656194566	 -0.159063114	 0.812428556
H	 -5.378013463	 -0.326496533	 0.025333009
C	 -3.956230558	 1.039368321	 0.906587895
H	 -4.114297998	 1.832823086	 0.189259309
C	 -3.042264513	 1.188366043	 1.943233140
H	 -2.465848684	 2.095272139	 2.056390330
C	 -2.869888145	 0.135218556	 2.837899122
H	 -2.162773799	 0.224299076	 3.653607346
C	 -0.115876434	 0.051929523	 -1.387497493
H	 -0.204979285	 0.091584474	 -2.464898066
C	 0.434033447	 1.128476535	 -0.694171733
H	 0.773937205	 2.002695713	 -1.233073027
C	 0.552118287	 1.075695630	 0.694171733
H	 0.984136510	 1.908710511	 1.232364002
C	 0.118391620	 -0.052690755	 1.387240449
H	 0.210273544	 -0.094383809	 2.464252824
C	 -0.436633730	 -1.127664626	 0.693864704
H	 -0.784940124	 -1.998406971	 1.232084680
C	 -0.551563109	 -1.075855657	 -0.693610387
H	 -0.984029385	 -1.908896886	 -1.230697910
