23
0  1  0  1  0  1  11  12 45.78777 47.90055 39.69372 37.58094 39.54170 38.38029 77.36617 77.36498 77.29898 46.11841 -57.79054 145.84208 -10.74453 -31.18861
N	 -3.305027123	 0.539943177	 0.903502268
C	 -3.589707867	 0.557109452	 -0.406221982
H	 -4.438247916	 -0.041778327	 -0.714468532
C	 -2.868412618	 1.288426885	 -1.346112859
H	 -3.152671132	 1.259208156	 -2.388667046
C	 -1.784996085	 2.046745481	 -0.914586475
H	 -1.196206893	 2.623010528	 -1.614844974
C	 -1.473903249	 2.039183699	 0.440157664
H	 -0.637136830	 2.603281339	 0.826362580
C	 -2.258596450	 1.276156560	 1.301149317
H	 -2.036932453	 1.251040115	 2.361130534
C	 -0.115876434	 0.051929523	 -1.387497493
H	 -0.204979285	 0.091584474	 -2.464898066
C	 0.434033447	 1.128476535	 -0.694171733
H	 0.773937205	 2.002695713	 -1.233073027
C	 0.552118287	 1.075695630	 0.694171733
H	 0.984136510	 1.908710511	 1.232364002
C	 0.118391620	 -0.052690755	 1.387240449
H	 0.210273544	 -0.094383809	 2.464252824
C	 -0.436633730	 -1.127664626	 0.693864704
H	 -0.784940124	 -1.998406971	 1.232084680
C	 -0.551563109	 -1.075855657	 -0.693610387
H	 -0.984029385	 -1.908896886	 -1.230697910
