24
0  1  0  1  0  1  12  12 10.91082 11.95418  8.76809  7.72473  8.69429  8.11984 27.52542 27.52233 27.48933 11.67819 -25.17840 60.41847 -6.21633 -17.34555
C	 -2.667949126	 0.680582107	 -1.208475595
H	 -2.771188117	 1.209937652	 -2.145246374
C	 -2.346163680	 -0.675209202	 -1.207966114
H	 -2.207252532	 -1.196515502	 -2.145299260
C	 -2.196631967	 -1.355644020	 -0.000003717
H	 -1.950878332	 -2.409373763	 -0.001411438
C	 -2.367441295	 -0.680484613	 1.207903442
H	 -2.249503462	 -1.205725914	 2.146063106
C	 -2.687384958	 0.676163505	 1.208549149
H	 -2.807903744	 1.201327370	 2.145755465
C	 -2.839533833	 1.354663741	 -0.000003413
H	 -3.090892950	 2.406941486	 -0.000170704
N	 0.661022384	 0.894894902	 -0.134403918
H	 0.319390982	 1.834329476	 -0.284055064
C	 1.467974485	 0.366440049	 -1.149485575
O	 1.769859282	 1.042367673	 -2.118608824
C	 1.875563239	 -1.006279387	 -0.904913478
H	 2.509704113	 -1.494061176	 -1.624949295
C	 1.461236408	 -1.638481567	 0.211975857
H	 1.737785589	 -2.657415111	 0.439445699
N	 0.654021475	 -1.025748562	 1.131658934
H	 0.352297841	 -1.504848608	 1.963266411
C	 0.205797060	 0.279703899	 1.010554536
O	 -0.506012831	 0.813324698	 1.838936174
