24
0  1  0  1  0  1  12  12 13.53077 14.95553 11.00172  9.57697 10.89365 10.11476 33.72277 33.71838 33.67646 13.26822 -31.39563 73.91201 -7.05027 -22.19789
C	 -0.557233684	 0.680582107	 1.546230246
H	 -0.453994693	 1.209937652	 2.483001025
C	 -0.879019130	 -0.675209202	 1.545720765
H	 -1.017930278	 -1.196515502	 2.483053911
C	 -1.028550843	 -1.355644020	 0.337758368
H	 -1.274304478	 -2.409373763	 0.339166089
C	 -0.857741515	 -0.680484613	 -0.870148791
H	 -0.975679348	 -1.205725914	 -1.808308455
C	 -0.537797852	 0.676163505	 -0.870794498
H	 -0.417279066	 1.201327370	 -1.808000814
C	 -0.385648978	 1.354663741	 0.337758064
H	 -0.134289860	 2.406941486	 0.337925355
N	 -3.291377407	 0.894894902	 1.526767816
H	 -2.990960012	 1.834329476	 1.305731916
C	 -2.815766955	 0.366440049	 2.733149664
O	 -2.127424001	 1.042367673	 3.479151191
C	 -3.231366981	 -1.006279387	 2.963845831
H	 -2.924868109	 -1.494061176	 3.873045846
C	 -3.991458103	 -1.638481567	 2.046583602
H	 -4.326727355	 -2.657415111	 2.172347298
N	 -4.384319546	 -1.025748562	 0.887673426
H	 -4.953650929	 -1.504848608	 0.210569355
C	 -4.055327852	 0.279703899	 0.560051895
O	 -4.416822449	 0.813324698	 -0.470584373
