24
0  1  0  1  0  1  12  12 -2.79980 -2.66783 -3.49819 -3.63016 -3.52283 -3.58515  1.27396  1.27359  1.27294 -3.00580 -1.20511  3.07557 -0.40588 -4.47038
C	 -3.725228635	 0.680461107	 -1.208475990
H	 -3.828467626	 1.209816652	 -2.145246769
C	 -3.403443189	 -0.675330202	 -1.207966509
H	 -3.264532041	 -1.196636502	 -2.145299655
C	 -3.253911476	 -1.355765020	 -0.000004112
H	 -3.008157841	 -2.409494763	 -0.001411833
C	 -3.424720804	 -0.680605613	 1.207903047
H	 -3.306782971	 -1.205846914	 2.146062711
C	 -3.744664467	 0.676042505	 1.208548754
H	 -3.865183253	 1.201206370	 2.145755070
C	 -3.896813342	 1.354542741	 -0.000003808
H	 -4.148172459	 2.406820486	 -0.000171099
N	 0.743902754	 0.923289422	 0.016031615
H	 0.892595643	 1.922207152	 0.057245622
C	 0.645346152	 0.369984000	 -1.266530938
O	 0.790080886	 1.066915354	 -2.256758689
C	 0.370580824	 -1.056460036	 -1.258519666
H	 0.290510931	 -1.573473556	 -2.199159412
C	 0.227361880	 -1.703776738	 -0.084101713
H	 0.023804325	 -2.762815840	 -0.025381642
N	 0.326551637	 -1.053520840	 1.115974662
H	 0.220805489	 -1.545685354	 1.987029680
C	 0.590669814	 0.301397120	 1.235207384
O	 0.682322566	 0.864653602	 2.308511872
