24
0  1  0  1  0  1  12  12 -2.21519 -2.04146 -2.84715 -3.02088 -2.87254 -2.95859  2.43633  2.43620  2.43550 -2.44494 -1.69662  5.09793 -0.83870 -5.00755
C	 -3.528664931	 0.680486057	 -1.208472182
H	 -3.631903922	 1.209841602	 -2.145242961
C	 -3.206879485	 -0.675305252	 -1.207962701
H	 -3.067968337	 -1.196611552	 -2.145295847
C	 -3.057347772	 -1.355740070	 -0.000000304
H	 -2.811594137	 -2.409469813	 -0.001408025
C	 -3.228157100	 -0.680580663	 1.207906855
H	 -3.110219267	 -1.205821964	 2.146066519
C	 -3.548100763	 0.676067455	 1.208552562
H	 -3.668619549	 1.201231320	 2.145758878
C	 -3.700249638	 1.354567691	 0.000000000
H	 -3.951608755	 2.406845436	 -0.000167291
N	 0.661022384	 0.894894902	 -0.134403918
H	 0.319390982	 1.834329476	 -0.284055064
C	 1.467974485	 0.366440049	 -1.149485575
O	 1.769859282	 1.042367673	 -2.118608824
C	 1.875563239	 -1.006279387	 -0.904913478
H	 2.509704113	 -1.494061176	 -1.624949295
C	 1.461236408	 -1.638481567	 0.211975857
H	 1.737785589	 -2.657415111	 0.439445699
N	 0.654021475	 -1.025748562	 1.131658934
H	 0.352297841	 -1.504848608	 1.963266411
C	 0.205797060	 0.279703899	 1.010554536
O	 -0.506012831	 0.813324698	 1.838936174
