24
0  1  0  1  0  1  12  12 -3.35849 -3.24407 -3.88576 -4.00018 -3.91129 -3.96169  0.02554  0.02449  0.02683 -3.56302 -1.47872  2.19053 -0.33710 -3.93774
C	 0.504796322	 0.680438032	 1.039593150
H	 0.608035313	 1.209793577	 1.976363929
C	 0.183010876	 -0.675353277	 1.039083669
H	 0.044099728	 -1.196659577	 1.976416815
C	 0.033479163	 -1.355788095	 -0.168878728
H	 -0.212274472	 -2.409517838	 -0.167471007
C	 0.204288491	 -0.680628688	 -1.376785887
H	 0.086350658	 -1.205869989	 -2.314945551
C	 0.524232154	 0.676019430	 -1.377431594
H	 0.644750940	 1.201183295	 -2.314637910
C	 0.676381028	 1.354519666	 -0.168879032
H	 0.927740146	 2.406797411	 -0.168711741
N	 -3.291377407	 0.894894902	 1.526767816
H	 -2.990960012	 1.834329476	 1.305731916
C	 -2.815766955	 0.366440049	 2.733149664
O	 -2.127424001	 1.042367673	 3.479151191
C	 -3.231366981	 -1.006279387	 2.963845831
H	 -2.924868109	 -1.494061176	 3.873045846
C	 -3.991458103	 -1.638481567	 2.046583602
H	 -4.326727355	 -2.657415111	 2.172347298
N	 -4.384319546	 -1.025748562	 0.887673426
H	 -4.953650929	 -1.504848608	 0.210569355
C	 -4.055327852	 0.279703899	 0.560051895
O	 -4.416822449	 0.813324698	 -0.470584373
