24
0  1  0  1  0  1  12  12 -4.34770 -4.16430 -4.93380 -5.11720 -4.97065 -5.05548  0.00990  0.00767  0.00742 -4.58517 -2.13877  3.17614 -0.65894 -4.96360
C	 -3.909313919	 0.680452761	 -1.208479799
H	 -4.012552910	 1.209808306	 -2.145250578
C	 -3.587528473	 -0.675338548	 -1.207970318
H	 -3.448617325	 -1.196644848	 -2.145303464
C	 -3.437996760	 -1.355773366	 -0.000007921
H	 -3.192243125	 -2.409503109	 -0.001415642
C	 -3.608806088	 -0.680613959	 1.207899238
H	 -3.490868255	 -1.205855260	 2.146058902
C	 -3.928749751	 0.676034159	 1.208544945
H	 -4.049268537	 1.201198024	 2.145751261
C	 -4.080898626	 1.354534395	 -0.000007617
H	 -4.332257743	 2.406812140	 -0.000174908
N	 -0.275296645	 0.626714015	 0.016031615
H	 -1.066038330	 1.254944699	 0.057245622
C	 0.154601606	 0.264708783	 -1.266530938
O	 -0.376591284	 0.738518416	 -2.256758689
C	 1.252555714	 -0.686466989	 -1.258519666
H	 1.660267610	 -1.014316311	 -2.199159412
C	 1.741538950	 -1.134156584	 -0.084101713
H	 2.556914939	 -1.839962149	 -0.025381642
N	 1.227995702	 -0.723127786	 1.115974662
H	 1.601349600	 -1.060788893	 1.987029680
C	 0.186661418	 0.183064245	 1.235207384
O	 -0.255306629	 0.544066098	 2.308511872
