24
0  1  0  1  0  1  12  12 -3.95242 -3.69954 -4.74484 -4.99772 -4.78418 -4.90802  2.11799  2.11755  2.11662 -4.13607 -3.57352  7.04992 -0.77189 -6.84058
C	 0.150786320	 0.680486057	 1.208472182
H	 0.254025311	 1.209841602	 2.145242961
C	 -0.170999126	 -0.675305252	 1.207962701
H	 -0.309910274	 -1.196611552	 2.145295847
C	 -0.320530839	 -1.355740070	 0.000000304
H	 -0.566284474	 -2.409469813	 0.001408025
C	 -0.149721511	 -0.680580663	 -1.207906855
H	 -0.267659344	 -1.205821964	 -2.146066519
C	 0.170222152	 0.676067455	 -1.208552562
H	 0.290740938	 1.201231320	 -2.145758878
C	 0.322371026	 1.354567691	 -0.000000000
H	 0.573730144	 2.406845436	 0.000167291
N	 -3.253796786	 0.894894902	 -1.554535388
H	 -2.912165384	 1.834329476	 -1.404884242
C	 -4.060748887	 0.366440049	 -0.539453730
O	 -4.362633684	 1.042367673	 0.429669518
C	 -4.468337641	 -1.006279387	 -0.784025827
H	 -5.102478515	 -1.494061176	 -0.063990010
C	 -4.054010810	 -1.638481567	 -1.900915163
H	 -4.330559991	 -2.657415111	 -2.128385004
N	 -3.246795878	 -1.025748562	 -2.820598240
H	 -2.945072243	 -1.504848608	 -3.652205717
C	 -2.798571462	 0.279703899	 -2.699493841
O	 -2.086761571	 0.813324698	 -3.527875480
