24
0  1  0  1  0  1  12  12 -3.57842 -3.17730 -4.68563 -5.08674 -4.73845 -4.94156  4.50546  4.50548  4.50133 -3.74573 -6.25339 13.00668 -1.37806 -9.12096
C	 -0.026218681	 0.680510070	 1.292911698
H	 0.077020310	 1.209865615	 2.229682477
C	 -0.348004127	 -0.675281239	 1.292402217
H	 -0.486915275	 -1.196587539	 2.229735363
C	 -0.497535840	 -1.355716057	 0.084439820
H	 -0.743289475	 -2.409445800	 0.085847541
C	 -0.326726512	 -0.680556650	 -1.123467339
H	 -0.444664345	 -1.205797951	 -2.061627003
C	 -0.006782849	 0.676091468	 -1.124113046
H	 0.113735937	 1.201255333	 -2.061319362
C	 0.145366025	 1.354591704	 0.084439516
H	 0.396725143	 2.406869449	 0.084606807
N	 -3.291377407	 0.894894902	 1.526767816
H	 -2.990960012	 1.834329476	 1.305731916
C	 -2.815766955	 0.366440049	 2.733149664
O	 -2.127424001	 1.042367673	 3.479151191
C	 -3.231366981	 -1.006279387	 2.963845831
H	 -2.924868109	 -1.494061176	 3.873045846
C	 -3.991458103	 -1.638481567	 2.046583602
H	 -4.326727355	 -2.657415111	 2.172347298
N	 -4.384319546	 -1.025748562	 0.887673426
H	 -4.953650929	 -1.504848608	 0.210569355
C	 -4.055327852	 0.279703899	 0.560051895
O	 -4.416822449	 0.813324698	 -0.470584373
