24
0  1  0  1  0  1  12  12 -4.04234 -3.77860 -4.89861 -5.16235 -4.94016 -5.06882  1.96976  1.96967  1.96918 -4.24834 -3.76620  7.21183 -0.83736 -6.85661
C	 0.150786320	 0.680486057	 1.208472182
H	 0.254025311	 1.209841602	 2.145242961
C	 -0.170999126	 -0.675305252	 1.207962701
H	 -0.309910274	 -1.196611552	 2.145295847
C	 -0.320530839	 -1.355740070	 0.000000304
H	 -0.566284474	 -2.409469813	 0.001408025
C	 -0.149721511	 -0.680580663	 -1.207906855
H	 -0.267659344	 -1.205821964	 -2.146066519
C	 0.170222152	 0.676067455	 -1.208552562
H	 0.290740938	 1.201231320	 -2.145758878
C	 0.322371026	 1.354567691	 -0.000000000
H	 0.573730144	 2.406845436	 0.000167291
N	 -3.291377407	 0.894894902	 1.526767816
H	 -2.990960012	 1.834329476	 1.305731916
C	 -2.815766955	 0.366440049	 2.733149664
O	 -2.127424001	 1.042367673	 3.479151191
C	 -3.231366981	 -1.006279387	 2.963845831
H	 -2.924868109	 -1.494061176	 3.873045846
C	 -3.991458103	 -1.638481567	 2.046583602
H	 -4.326727355	 -2.657415111	 2.172347298
N	 -4.384319546	 -1.025748562	 0.887673426
H	 -4.953650929	 -1.504848608	 0.210569355
C	 -4.055327852	 0.279703899	 0.560051895
O	 -4.416822449	 0.813324698	 -0.470584373
