24
0  1  0  1  0  1  12  12 56.99927 59.54002 53.36013 50.81938 53.22560 51.79923 88.55102 88.54350 88.45989 56.14633 -85.53604 197.47895 -22.22919 -33.56739
C	 -2.237591223	 0.680630132	 -1.208477301
H	 -2.340830214	 1.209985677	 -2.145248080
C	 -1.915805777	 -0.675161177	 -1.207967820
H	 -1.776894629	 -1.196467477	 -2.145300966
C	 -1.766274064	 -1.355595995	 -0.000005423
H	 -1.520520429	 -2.409325738	 -0.001413144
C	 -1.937083392	 -0.680436588	 1.207901736
H	 -1.819145559	 -1.205677889	 2.146061400
C	 -2.257027055	 0.676211530	 1.208547443
H	 -2.377545841	 1.201375395	 2.145753759
C	 -2.409175930	 1.354711766	 -0.000005119
H	 -2.660535047	 2.406989511	 -0.000172410
N	 0.661022384	 0.894894902	 -0.134403918
H	 0.319390982	 1.834329476	 -0.284055064
C	 1.467974485	 0.366440049	 -1.149485575
O	 1.769859282	 1.042367673	 -2.118608824
C	 1.875563239	 -1.006279387	 -0.904913478
H	 2.509704113	 -1.494061176	 -1.624949295
C	 1.461236408	 -1.638481567	 0.211975857
H	 1.737785589	 -2.657415111	 0.439445699
N	 0.654021475	 -1.025748562	 1.131658934
H	 0.352297841	 -1.504848608	 1.963266411
C	 0.205797060	 0.279703899	 1.010554536
O	 -0.506012831	 0.813324698	 1.838936174
