24
0  1  0  1  0  1  12  12 -1.60712 -1.01328 -2.94108 -3.53492 -3.00524 -3.31551  9.30214  9.30255  9.29296 -1.70853 -10.27866 22.82747 -2.11161 -12.14573
C	 -0.201061162	 0.680534082	 1.039579958
H	 -0.097822171	 1.209889627	 1.976350737
C	 -0.522846608	 -0.675257227	 1.039070477
H	 -0.661757756	 -1.196563527	 1.976403623
C	 -0.672378321	 -1.355692045	 -0.168891920
H	 -0.918131956	 -2.409421788	 -0.167484199
C	 -0.501568993	 -0.680532638	 -1.376799079
H	 -0.619506826	 -1.205773939	 -2.314958743
C	 -0.181625330	 0.676115480	 -1.377444786
H	 -0.061106544	 1.201279345	 -2.314651102
C	 -0.029476456	 1.354615716	 -0.168892224
H	 0.221882662	 2.406893461	 -0.168724933
N	 -3.253796786	 0.894894902	 -1.554535388
H	 -2.912165384	 1.834329476	 -1.404884242
C	 -4.060748887	 0.366440049	 -0.539453730
O	 -4.362633684	 1.042367673	 0.429669518
C	 -4.468337641	 -1.006279387	 -0.784025827
H	 -5.102478515	 -1.494061176	 -0.063990010
C	 -4.054010810	 -1.638481567	 -1.900915163
H	 -4.330559991	 -2.657415111	 -2.128385004
N	 -3.246795878	 -1.025748562	 -2.820598240
H	 -2.945072243	 -1.504848608	 -3.652205717
C	 -2.798571462	 0.279703899	 -2.699493841
O	 -2.086761571	 0.813324698	 -3.527875480
