24
0  1  0  1  0  1  12  12 12.17776 13.31891  9.58873  8.44759  9.51005  8.88161 30.21736 30.21410 30.18042 12.95764 -27.22673 66.20095 -7.23029 -18.78629
C	 -2.680317290	 0.680582107	 -1.208442385
H	 -2.783556281	 1.209937652	 -2.145213164
C	 -2.358531844	 -0.675209202	 -1.207932904
H	 -2.219620696	 -1.196515502	 -2.145266050
C	 -2.209000131	 -1.355644020	 0.000029493
H	 -1.963246496	 -2.409373763	 -0.001378228
C	 -2.379809459	 -0.680484613	 1.207936652
H	 -2.261871626	 -1.205725914	 2.146096316
C	 -2.699753122	 0.676163505	 1.208582359
H	 -2.820271908	 1.201327370	 2.145788675
C	 -2.851901997	 1.354663741	 0.000029797
H	 -3.103261114	 2.406941486	 -0.000137494
N	 0.615136985	 0.894894902	 0.162171489
H	 0.314719590	 1.834329476	 0.383207389
C	 0.139526533	 0.366440049	 -1.044210358
O	 -0.548816421	 1.042367673	 -1.790211886
C	 0.555126559	 -1.006279387	 -1.274906525
H	 0.248627687	 -1.494061176	 -2.184106540
C	 1.315217681	 -1.638481567	 -0.357644297
H	 1.650486933	 -2.657415111	 -0.483407992
N	 1.708079123	 -1.025748562	 0.801265880
H	 2.277410507	 -1.504848608	 1.478369950
C	 1.379087430	 0.279703899	 1.128887411
O	 1.740582027	 0.813324698	 2.159523678
