24
0  1  0  1  0  1  12  12 -2.24918 -2.12463 -2.87218 -2.99673 -2.89403 -2.95355  1.58419  1.58418  1.58383 -2.52043 -0.87170  3.09700 -0.62344 -4.12229
C	 -3.740751841	 0.680462044	 -1.208479631
H	 -3.843990832	 1.209817589	 -2.145250410
C	 -3.418966395	 -0.675329265	 -1.207970150
H	 -3.280055247	 -1.196635565	 -2.145303296
C	 -3.269434682	 -1.355764083	 -0.000007753
H	 -3.023681047	 -2.409493826	 -0.001415474
C	 -3.440244010	 -0.680604676	 1.207899406
H	 -3.322306177	 -1.205845977	 2.146059070
C	 -3.760187673	 0.676043442	 1.208545113
H	 -3.880706459	 1.201207307	 2.145751429
C	 -3.912336548	 1.354543678	 -0.000007449
H	 -4.163695665	 2.406821423	 -0.000174740
N	 0.615136985	 0.894894902	 0.162171489
H	 0.314719590	 1.834329476	 0.383207389
C	 0.139526533	 0.366440049	 -1.044210358
O	 -0.548816421	 1.042367673	 -1.790211886
C	 0.555126559	 -1.006279387	 -1.274906525
H	 0.248627687	 -1.494061176	 -2.184106540
C	 1.315217681	 -1.638481567	 -0.357644297
H	 1.650486933	 -2.657415111	 -0.483407992
N	 1.708079123	 -1.025748562	 0.801265880
H	 2.277410507	 -1.504848608	 1.478369950
C	 1.379087430	 0.279703899	 1.128887411
O	 1.740582027	 0.813324698	 2.159523678
