24
0  1  0  1  0  1  12  12 -0.54715 -0.12463 -1.69420 -2.11672 -1.73637 -1.95979  8.14246  8.14179  8.13342 -0.52430 -6.99114 17.84980 -2.15190 -9.23106
C	 -3.098307028	 0.680534082	 -1.208473888
H	 -3.201546019	 1.209889627	 -2.145244667
C	 -2.776521582	 -0.675257227	 -1.207964407
H	 -2.637610434	 -1.196563527	 -2.145297553
C	 -2.626989869	 -1.355692045	 -0.000002010
H	 -2.381236234	 -2.409421788	 -0.001409731
C	 -2.797799197	 -0.680532638	 1.207905149
H	 -2.679861364	 -1.205773939	 2.146064813
C	 -3.117742860	 0.676115480	 1.208550856
H	 -3.238261646	 1.201279345	 2.145757172
C	 -3.269891735	 1.354615716	 -0.000001706
H	 -3.521250852	 2.406893461	 -0.000168997
N	 0.661022384	 0.894894902	 -0.134403918
H	 0.319390982	 1.834329476	 -0.284055064
C	 1.467974485	 0.366440049	 -1.149485575
O	 1.769859282	 1.042367673	 -2.118608824
C	 1.875563239	 -1.006279387	 -0.904913478
H	 2.509704113	 -1.494061176	 -1.624949295
C	 1.461236408	 -1.638481567	 0.211975857
H	 1.737785589	 -2.657415111	 0.439445699
N	 0.654021475	 -1.025748562	 1.131658934
H	 0.352297841	 -1.504848608	 1.963266411
C	 0.205797060	 0.279703899	 1.010554536
O	 -0.506012831	 0.813324698	 1.838936174
