24
0  1  0  1  0  1  12  12 -3.84055 -3.66498 -4.42802 -4.60360 -4.46059 -4.54371  0.59893  0.59714  0.59609 -4.00718 -2.19821  3.74019 -0.52017 -5.02899
C	 0.322555227	 0.596022444	 1.208475990
H	 0.425794218	 1.125377989	 2.145246769
C	 0.000769781	 -0.759768865	 1.207966509
H	 -0.138141367	 -1.281075165	 2.145299655
C	 -0.148761932	 -1.440203683	 0.000004112
H	 -0.394515567	 -2.493933426	 0.001411833
C	 0.022047396	 -0.765044276	 -1.207903047
H	 -0.095890437	 -1.290285577	 -2.146062711
C	 0.341991059	 0.591603842	 -1.208548754
H	 0.462509845	 1.116767707	 -2.145755070
C	 0.494139933	 1.270104078	 0.000003808
H	 0.745499051	 2.322381823	 0.000171099
N	 -2.731470212	 2.315653321	 -0.016031615
H	 -1.940728527	 2.943884004	 -0.057245622
C	 -3.161368463	 1.953648088	 1.266530938
O	 -2.630175573	 2.427457721	 2.256758689
C	 -4.259322571	 1.002472317	 1.258519666
H	 -4.667034467	 0.674622995	 2.199159412
C	 -4.748305807	 0.554782722	 0.084101713
H	 -5.563681796	 -0.151022844	 0.025381642
N	 -4.234762560	 0.965811520	 -1.115974662
H	 -4.608116457	 0.628150413	 -1.987029680
C	 -3.193428275	 1.872003550	 -1.235207384
O	 -2.751460228	 2.233005403	 -2.308511872
