24
0  1  0  1  0  1  12  12 -4.92087 -4.72535 -5.92521 -6.12074 -5.96170 -6.05395  0.78798  0.78699  0.78627 -5.23648 -2.31092  4.12379 -0.57845 -6.47090
C	 0.813079057	 1.272218631	 -0.375890861
H	 1.508323120	 2.098818990	 -0.418111872
C	 1.287469876	 -0.027247085	 -0.208384411
H	 2.350967480	 -0.206567337	 -0.127966227
C	 0.390833069	 -1.092858388	 -0.137395567
H	 0.761063328	 -2.101732974	 -0.011519333
C	 -0.980499542	 -0.859496695	 -0.232500483
H	 -1.677899048	 -1.684289628	 -0.175212978
C	 -1.456198427	 0.440177073	 -0.398081726
H	 -2.520201293	 0.621194918	 -0.459790587
C	 -0.558445541	 1.504462542	 -0.471887832
H	 -0.926911952	 2.513115995	 -0.603495588
N	 -0.275804152	 0.674183275	 3.194265248
H	 -0.649111545	 1.575944705	 2.931372277
C	 1.116342530	 0.601196369	 3.326278587
O	 1.807252849	 1.595620061	 3.181444522
C	 1.595242644	 -0.732881340	 3.644388789
H	 2.652294738	 -0.885097279	 3.778509925
C	 0.715533417	 -1.747262516	 3.770605314
H	 1.021460938	 -2.755683125	 4.007129675
N	 -0.629712470	 -1.562230596	 3.600513171
H	 -1.278460301	 -2.324789539	 3.699382342
C	 -1.204160779	 -0.337429568	 3.301098555
O	 -2.401949191	 -0.186606293	 3.158986363
