24
0  1  0  1  0  1  12  12 62.87479 65.86542 58.15578 55.16514 58.00260 56.30735 101.10238 101.09768 100.96769 61.38912 -85.60659 206.20786 -20.07249 -39.13966
C	 -0.879827119	 1.187267735	 1.208449331
H	 -0.776588128	 1.716623280	 2.145220110
C	 -1.201612565	 -0.168523574	 1.207939850
H	 -1.340523713	 -0.689829874	 2.145272996
C	 -1.351144278	 -0.848958392	 -0.000022547
H	 -1.596897913	 -1.902688135	 0.001385174
C	 -1.180334950	 -0.173798985	 -1.207929706
H	 -1.298272783	 -0.699040286	 -2.146089370
C	 -0.860391287	 1.182849133	 -1.208575413
H	 -0.739872501	 1.708012998	 -2.145781729
C	 -0.708242413	 1.861349369	 -0.000022851
H	 -0.456883295	 2.913627114	 0.000144440
N	 -2.731470212	 2.315653321	 -0.016031615
H	 -1.940728527	 2.943884004	 -0.057245622
C	 -3.161368463	 1.953648088	 1.266530938
O	 -2.630175573	 2.427457721	 2.256758689
C	 -4.259322571	 1.002472317	 1.258519666
H	 -4.667034467	 0.674622995	 2.199159412
C	 -4.748305807	 0.554782722	 0.084101713
H	 -5.563681796	 -0.151022844	 0.025381642
N	 -4.234762560	 0.965811520	 -1.115974662
H	 -4.608116457	 0.628150413	 -1.987029680
C	 -3.193428275	 1.872003550	 -1.235207384
O	 -2.751460228	 2.233005403	 -2.308511872
