24
0  1  0  1  0  1  12  12 -4.10120 -3.83937 -4.85676 -5.11859 -4.89879 -5.02700  1.83550  1.83233  1.82963 -4.23487 -3.51953  6.73710 -0.82522 -6.62723
C	 0.150786320	 0.680486057	 1.208472182
H	 0.254025311	 1.209841602	 2.145242961
C	 -0.170999126	 -0.675305252	 1.207962701
H	 -0.309910274	 -1.196611552	 2.145295847
C	 -0.320530839	 -1.355740070	 0.000000304
H	 -0.566284474	 -2.409469813	 0.001408025
C	 -0.149721511	 -0.680580663	 -1.207906855
H	 -0.267659344	 -1.205821964	 -2.146066519
C	 0.170222152	 0.676067455	 -1.208552562
H	 0.290740938	 1.201231320	 -2.145758878
C	 0.322371026	 1.354567691	 -0.000000000
H	 0.573730144	 2.406845436	 0.000167291
N	 -2.731470212	 2.315653321	 -0.016031615
H	 -1.940728527	 2.943884004	 -0.057245622
C	 -3.161368463	 1.953648088	 1.266530938
O	 -2.630175573	 2.427457721	 2.256758689
C	 -4.259322571	 1.002472317	 1.258519666
H	 -4.667034467	 0.674622995	 2.199159412
C	 -4.748305807	 0.554782722	 0.084101713
H	 -5.563681796	 -0.151022844	 0.025381642
N	 -4.234762560	 0.965811520	 -1.115974662
H	 -4.608116457	 0.628150413	 -1.987029680
C	 -3.193428275	 1.872003550	 -1.235207384
O	 -2.751460228	 2.233005403	 -2.308511872
