24
0  1  0  1  0  1  12  12 71.04457 74.31172 66.51104 63.24389 66.33331 64.50350 108.70833 108.69738 108.59370 65.90101 -94.77096 226.17310 -23.67279 -41.82833
C	 -0.911243685	 0.680630132	 1.715109278
H	 -0.808004694	 1.209985677	 2.651880057
C	 -1.233029131	 -0.675161177	 1.714599797
H	 -1.371940279	 -1.196467477	 2.651932943
C	 -1.382560844	 -1.355595995	 0.506637400
H	 -1.628314479	 -2.409325738	 0.508045121
C	 -1.211751516	 -0.680436588	 -0.701269759
H	 -1.329689349	 -1.205677889	 -1.639429423
C	 -0.891807853	 0.676211530	 -0.701915466
H	 -0.771289067	 1.201375395	 -1.639121782
C	 -0.739658979	 1.354711766	 0.506637096
H	 -0.488299861	 2.406989511	 0.506804387
N	 -3.291377407	 0.894894902	 1.526767816
H	 -2.990960012	 1.834329476	 1.305731916
C	 -2.815766955	 0.366440049	 2.733149664
O	 -2.127424001	 1.042367673	 3.479151191
C	 -3.231366981	 -1.006279387	 2.963845831
H	 -2.924868109	 -1.494061176	 3.873045846
C	 -3.991458103	 -1.638481567	 2.046583602
H	 -4.326727355	 -2.657415111	 2.172347298
N	 -4.384319546	 -1.025748562	 0.887673426
H	 -4.953650929	 -1.504848608	 0.210569355
C	 -4.055327852	 0.279703899	 0.560051895
O	 -4.416822449	 0.813324698	 -0.470584373
