24
0  1  0  1  0  1  12  12  9.90357 10.93367  7.34127  6.31117  7.25211  6.69502 27.90409 27.90092 27.86984  9.60157 -21.90714 54.33149 -4.16640 -18.65638
C	 -2.742410113	 0.680585858	 -1.208456948
H	 -2.845649104	 1.209941403	 -2.145227727
C	 -2.420624667	 -0.675205451	 -1.207947467
H	 -2.281713519	 -1.196511751	 -2.145280613
C	 -2.271092954	 -1.355640269	 0.000014930
H	 -2.025339319	 -2.409370012	 -0.001392791
C	 -2.441902282	 -0.680480862	 1.207922089
H	 -2.323964449	 -1.205722163	 2.146081753
C	 -2.761845945	 0.676167256	 1.208567796
H	 -2.882364731	 1.201331121	 2.145774112
C	 -2.913994820	 1.354667492	 0.000015234
H	 -3.165353937	 2.406945237	 -0.000152057
N	 0.743902754	 0.923289422	 0.016031615
H	 0.892595643	 1.922207152	 0.057245622
C	 0.645346152	 0.369984000	 -1.266530938
O	 0.790080886	 1.066915354	 -2.256758689
C	 0.370580824	 -1.056460036	 -1.258519666
H	 0.290510931	 -1.573473556	 -2.199159412
C	 0.227361880	 -1.703776738	 -0.084101713
H	 0.023804325	 -2.762815840	 -0.025381642
N	 0.326551637	 -1.053520840	 1.115974662
H	 0.220805489	 -1.545685354	 1.987029680
C	 0.590669814	 0.301397120	 1.235207384
O	 0.682322566	 0.864653602	 2.308511872
