24
0  1  0  1  0  1  12  12 -4.64143 -4.08574 -5.92778 -6.48347 -6.00031 -6.27921  5.38987  5.38175  5.38275 -4.75462 -8.24379 17.23561 -2.51990 -11.22654
C	 -3.338340437	 0.680502705	 -1.208468374
H	 -3.441579428	 1.209858250	 -2.145239153
C	 -3.016554991	 -0.675288604	 -1.207958893
H	 -2.877643843	 -1.196594904	 -2.145292039
C	 -2.867023278	 -1.355723422	 0.000003504
H	 -2.621269643	 -2.409453165	 -0.001404217
C	 -3.037832606	 -0.680564015	 1.207910663
H	 -2.919894773	 -1.205805316	 2.146070327
C	 -3.357776269	 0.676084103	 1.208556370
H	 -3.478295055	 1.201247968	 2.145762686
C	 -3.509925144	 1.354584339	 0.000003808
H	 -3.761284261	 2.406862084	 -0.000163483
N	 -0.275296645	 0.626714015	 0.016031615
H	 -1.066038330	 1.254944699	 0.057245622
C	 0.154601606	 0.264708783	 -1.266530938
O	 -0.376591284	 0.738518416	 -2.256758689
C	 1.252555714	 -0.686466989	 -1.258519666
H	 1.660267610	 -1.014316311	 -2.199159412
C	 1.741538950	 -1.134156584	 -0.084101713
H	 2.556914939	 -1.839962149	 -0.025381642
N	 1.227995702	 -0.723127786	 1.115974662
H	 1.601349600	 -1.060788893	 1.987029680
C	 0.186661418	 0.183064245	 1.235207384
O	 -0.255306629	 0.544066098	 2.308511872
