24
0  1  0  1  0  1  12  12 12.49080 13.82667  9.45676  8.12089  9.34536  8.62401 34.01854 34.01874 33.98685 11.62416 -28.49660 69.14048 -5.72110 -23.29863
C	 -0.550562798	 0.342797997	 1.208456948
H	 -0.447323807	 0.872153542	 2.145227727
C	 -0.872348244	 -1.012993312	 1.207947467
H	 -1.011259392	 -1.534299612	 2.145280613
C	 -1.021879957	 -1.693428130	 -0.000014930
H	 -1.267633592	 -2.747157873	 0.001392791
C	 -0.851070629	 -1.018268723	 -1.207922089
H	 -0.969008462	 -1.543510024	 -2.146081753
C	 -0.531126966	 0.338379395	 -1.208567796
H	 -0.410608180	 0.863543260	 -2.145774112
C	 -0.378978092	 1.016879631	 -0.000015234
H	 -0.127618974	 2.069157376	 0.000152057
N	 -3.697252865	 -0.765649883	 -0.016031615
H	 -3.845945754	 0.233267846	 -0.057245622
C	 -3.598696263	 -1.318955306	 1.266530938
O	 -3.743430997	 -0.622023952	 2.256758689
C	 -3.323930935	 -2.745399341	 1.258519666
H	 -3.243861042	 -3.262412861	 2.199159412
C	 -3.180711991	 -3.392716043	 0.084101713
H	 -2.977154436	 -4.451755146	 0.025381642
N	 -3.279901749	 -2.742460146	 -1.115974662
H	 -3.174155600	 -3.234624659	 -1.987029680
C	 -3.544019925	 -1.387542186	 -1.235207384
O	 -3.635672677	 -0.824285704	 -2.308511872
