24
0  1  0  1  0  1  12  12 -1.91174 -1.83433 -2.39471 -2.47212 -2.41134 -2.44649  0.96303  0.96315  0.96314 -2.15611 -0.29561  1.64256 -0.41386 -3.08919
C	 -3.952838752	 0.680438032	 -1.208487081
H	 -4.056077743	 1.209793577	 -2.145257860
C	 -3.631053306	 -0.675353277	 -1.207977600
H	 -3.492142158	 -1.196659577	 -2.145310746
C	 -3.481521593	 -1.355788095	 -0.000015203
H	 -3.235767958	 -2.409517838	 -0.001422924
C	 -3.652330921	 -0.680628688	 1.207891956
H	 -3.534393088	 -1.205869989	 2.146051620
C	 -3.972274584	 0.676019430	 1.208537663
H	 -4.092793370	 1.201183295	 2.145743979
C	 -4.124423459	 1.354519666	 -0.000014899
H	 -4.375782576	 2.406797411	 -0.000182190
N	 0.615136985	 0.894894902	 0.162171489
H	 0.314719590	 1.834329476	 0.383207389
C	 0.139526533	 0.366440049	 -1.044210358
O	 -0.548816421	 1.042367673	 -1.790211886
C	 0.555126559	 -1.006279387	 -1.274906525
H	 0.248627687	 -1.494061176	 -2.184106540
C	 1.315217681	 -1.638481567	 -0.357644297
H	 1.650486933	 -2.657415111	 -0.483407992
N	 1.708079123	 -1.025748562	 0.801265880
H	 2.277410507	 -1.504848608	 1.478369950
C	 1.379087430	 0.279703899	 1.128887411
O	 1.740582027	 0.813324698	 2.159523678
