24
0  1  0  1  0  1  12  12 -5.02980 -4.46331 -7.03186 -7.59835 -7.09863 -7.38783  7.12523  7.12502  7.12431 -5.29687 -8.92822 18.97461 -1.94036 -13.40289
C	 0.832114129	 1.218677940	 0.127569775
H	 1.527358192	 2.045278299	 0.085348764
C	 1.306504948	 -0.080787776	 0.295076225
H	 2.370002552	 -0.260108028	 0.375494409
C	 0.409868141	 -1.146399079	 0.366065069
H	 0.780098400	 -2.155273665	 0.491941303
C	 -0.961464470	 -0.913037386	 0.270960153
H	 -1.658863976	 -1.737830319	 0.328247658
C	 -1.437163355	 0.386636382	 0.105378910
H	 -2.501166221	 0.567654227	 0.043670049
C	 -0.539410469	 1.450921851	 0.031572804
H	 -0.907876880	 2.459575304	 -0.100034952
N	 -0.275804152	 0.674183275	 3.194265248
H	 -0.649111545	 1.575944705	 2.931372277
C	 1.116342530	 0.601196369	 3.326278587
O	 1.807252849	 1.595620061	 3.181444522
C	 1.595242644	 -0.732881340	 3.644388789
H	 2.652294738	 -0.885097279	 3.778509925
C	 0.715533417	 -1.747262516	 3.770605314
H	 1.021460938	 -2.755683125	 4.007129675
N	 -0.629712470	 -1.562230596	 3.600513171
H	 -1.278460301	 -2.324789539	 3.699382342
C	 -1.204160779	 -0.337429568	 3.301098555
O	 -2.401949191	 -0.186606293	 3.158986363
