24
0  1  0  1  0  1  12  12 11.23300 12.91288  7.13323  5.45335  7.00338  6.09684 37.78576 37.78225 37.75754 11.02198 -36.56710 83.21475 -7.31226 -28.31343
C	 0.851149201	 1.165137249	 0.631030411
H	 1.546393264	 1.991737608	 0.588809400
C	 1.325540020	 -0.134328467	 0.798536861
H	 2.389037624	 -0.313648719	 0.878955045
C	 0.428903213	 -1.199939770	 0.869525705
H	 0.799133472	 -2.208814356	 0.995401939
C	 -0.942429398	 -0.966578077	 0.774420789
H	 -1.639828904	 -1.791371010	 0.831708294
C	 -1.418128283	 0.333095691	 0.608839546
H	 -2.482131149	 0.514113536	 0.547130685
C	 -0.520375397	 1.397381160	 0.535033440
H	 -0.888841808	 2.406034613	 0.403425684
N	 -0.275804152	 0.674183275	 3.194265248
H	 -0.649111545	 1.575944705	 2.931372277
C	 1.116342530	 0.601196369	 3.326278587
O	 1.807252849	 1.595620061	 3.181444522
C	 1.595242644	 -0.732881340	 3.644388789
H	 2.652294738	 -0.885097279	 3.778509925
C	 0.715533417	 -1.747262516	 3.770605314
H	 1.021460938	 -2.755683125	 4.007129675
N	 -0.629712470	 -1.562230596	 3.600513171
H	 -1.278460301	 -2.324789539	 3.699382342
C	 -1.204160779	 -0.337429568	 3.301098555
O	 -2.401949191	 -0.186606293	 3.158986363
