24
0  1  0  1  0  1  12  12 -3.77912 -3.39061 -4.76700 -5.15550 -4.81989 -5.01590  4.20747  4.20276  4.19805 -3.82536 -5.79067 12.08563 -1.34209 -8.77823
C	 -0.020982587	 0.764949670	 1.208468374
H	 0.082256404	 1.294305215	 2.145239153
C	 -0.342768033	 -0.590841639	 1.207958893
H	 -0.481679181	 -1.112147939	 2.145292039
C	 -0.492299746	 -1.271276457	 -0.000003504
H	 -0.738053381	 -2.325006200	 0.001404217
C	 -0.321490418	 -0.596117050	 -1.207910663
H	 -0.439428251	 -1.121358351	 -2.146070327
C	 -0.001546755	 0.760531068	 -1.208556370
H	 0.118972031	 1.285694933	 -2.145762686
C	 0.150602119	 1.439031304	 -0.000003808
H	 0.401961237	 2.491309049	 0.000163483
N	 -2.731470212	 2.315653321	 -0.016031615
H	 -1.940728527	 2.943884004	 -0.057245622
C	 -3.161368463	 1.953648088	 1.266530938
O	 -2.630175573	 2.427457721	 2.256758689
C	 -4.259322571	 1.002472317	 1.258519666
H	 -4.667034467	 0.674622995	 2.199159412
C	 -4.748305807	 0.554782722	 0.084101713
H	 -5.563681796	 -0.151022844	 0.025381642
N	 -4.234762560	 0.965811520	 -1.115974662
H	 -4.608116457	 0.628150413	 -1.987029680
C	 -3.193428275	 1.872003550	 -1.235207384
O	 -2.751460228	 2.233005403	 -2.308511872
