24
0  1  0  1  0  1  12  12 -3.78035 -3.51877 -4.82212 -5.08371 -4.86640 -4.99441  3.09463  3.09346  3.08781 -4.10407 -3.26346  7.39658 -0.75199 -7.48520
C	 0.150786320	 0.680486057	 1.208472182
H	 0.254025311	 1.209841602	 2.145242961
C	 -0.170999126	 -0.675305252	 1.207962701
H	 -0.309910274	 -1.196611552	 2.145295847
C	 -0.320530839	 -1.355740070	 0.000000304
H	 -0.566284474	 -2.409469813	 0.001408025
C	 -0.149721511	 -0.680580663	 -1.207906855
H	 -0.267659344	 -1.205821964	 -2.146066519
C	 0.170222152	 0.676067455	 -1.208552562
H	 0.290740938	 1.201231320	 -2.145758878
C	 0.322371026	 1.354567691	 -0.000000000
H	 0.573730144	 2.406845436	 0.000167291
N	 -3.697252865	 -0.765649883	 -0.016031615
H	 -3.845945754	 0.233267846	 -0.057245622
C	 -3.598696263	 -1.318955306	 1.266530938
O	 -3.743430997	 -0.622023952	 2.256758689
C	 -3.323930935	 -2.745399341	 1.258519666
H	 -3.243861042	 -3.262412861	 2.199159412
C	 -3.180711991	 -3.392716043	 0.084101713
H	 -2.977154436	 -4.451755146	 0.025381642
N	 -3.279901749	 -2.742460146	 -1.115974662
H	 -3.174155600	 -3.234624659	 -1.987029680
C	 -3.544019925	 -1.387542186	 -1.235207384
O	 -3.635672677	 -0.824285704	 -2.308511872
