24
0  1  0  1  0  1  12  12 -2.91863 -2.71842 -3.81109 -4.01130 -3.84301 -3.94143  2.51464  2.51377  2.51108 -3.14806 -2.16319  5.50978 -0.61132 -5.88333
C	 -3.528664931	 0.680486057	 -1.208472182
H	 -3.631903922	 1.209841602	 -2.145242961
C	 -3.206879485	 -0.675305252	 -1.207962701
H	 -3.067968337	 -1.196611552	 -2.145295847
C	 -3.057347772	 -1.355740070	 -0.000000304
H	 -2.811594137	 -2.409469813	 -0.001408025
C	 -3.228157100	 -0.680580663	 1.207906855
H	 -3.110219267	 -1.205821964	 2.146066519
C	 -3.548100763	 0.676067455	 1.208552562
H	 -3.668619549	 1.201231320	 2.145758878
C	 -3.700249638	 1.354567691	 0.000000000
H	 -3.951608755	 2.406845436	 -0.000167291
N	 0.743902754	 0.923289422	 0.016031615
H	 0.892595643	 1.922207152	 0.057245622
C	 0.645346152	 0.369984000	 -1.266530938
O	 0.790080886	 1.066915354	 -2.256758689
C	 0.370580824	 -1.056460036	 -1.258519666
H	 0.290510931	 -1.573473556	 -2.199159412
C	 0.227361880	 -1.703776738	 -0.084101713
H	 0.023804325	 -2.762815840	 -0.025381642
N	 0.326551637	 -1.053520840	 1.115974662
H	 0.220805489	 -1.545685354	 1.987029680
C	 0.590669814	 0.301397120	 1.235207384
O	 0.682322566	 0.864653602	 2.308511872
