24
0  1  0  1  0  1  12  12 -5.18462 -4.79895 -6.15990 -6.54558 -6.21942 -6.40823  2.37999  2.37328  2.37268 -5.37788 -5.13299  9.87548 -1.59403 -8.52633
C	 -3.528664931	 0.680486057	 -1.208472182
H	 -3.631903922	 1.209841602	 -2.145242961
C	 -3.206879485	 -0.675305252	 -1.207962701
H	 -3.067968337	 -1.196611552	 -2.145295847
C	 -3.057347772	 -1.355740070	 -0.000000304
H	 -2.811594137	 -2.409469813	 -0.001408025
C	 -3.228157100	 -0.680580663	 1.207906855
H	 -3.110219267	 -1.205821964	 2.146066519
C	 -3.548100763	 0.676067455	 1.208552562
H	 -3.668619549	 1.201231320	 2.145758878
C	 -3.700249638	 1.354567691	 0.000000000
H	 -3.951608755	 2.406845436	 -0.000167291
N	 -0.275296645	 0.626714015	 0.016031615
H	 -1.066038330	 1.254944699	 0.057245622
C	 0.154601606	 0.264708783	 -1.266530938
O	 -0.376591284	 0.738518416	 -2.256758689
C	 1.252555714	 -0.686466989	 -1.258519666
H	 1.660267610	 -1.014316311	 -2.199159412
C	 1.741538950	 -1.134156584	 -0.084101713
H	 2.556914939	 -1.839962149	 -0.025381642
N	 1.227995702	 -0.723127786	 1.115974662
H	 1.601349600	 -1.060788893	 1.987029680
C	 0.186661418	 0.183064245	 1.235207384
O	 -0.255306629	 0.544066098	 2.308511872
