24
0  1  0  1  0  1  12  12 -1.91227 -1.64081 -2.75735 -3.02880 -2.78996 -2.92935  4.42266  4.42234  4.41924 -2.07211 -3.54013  9.57992 -1.32795 -6.78394
C	 -3.313485980	 0.680510070	 -1.208473035
H	 -3.416724971	 1.209865615	 -2.145243814
C	 -2.991700534	 -0.675281239	 -1.207963554
H	 -2.852789386	 -1.196587539	 -2.145296700
C	 -2.842168821	 -1.355716057	 -0.000001157
H	 -2.596415186	 -2.409445800	 -0.001408878
C	 -3.012978149	 -0.680556650	 1.207906002
H	 -2.895040316	 -1.205797951	 2.146065666
C	 -3.332921812	 0.676091468	 1.208551709
H	 -3.453440598	 1.201255333	 2.145758025
C	 -3.485070687	 1.354591704	 -0.000000853
H	 -3.736429804	 2.406869449	 -0.000168144
N	 0.661022384	 0.894894902	 -0.134403918
H	 0.319390982	 1.834329476	 -0.284055064
C	 1.467974485	 0.366440049	 -1.149485575
O	 1.769859282	 1.042367673	 -2.118608824
C	 1.875563239	 -1.006279387	 -0.904913478
H	 2.509704113	 -1.494061176	 -1.624949295
C	 1.461236408	 -1.638481567	 0.211975857
H	 1.737785589	 -2.657415111	 0.439445699
N	 0.654021475	 -1.025748562	 1.131658934
H	 0.352297841	 -1.504848608	 1.963266411
C	 0.205797060	 0.279703899	 1.010554536
O	 -0.506012831	 0.813324698	 1.838936174
