24
0  1  0  1  0  1  12  12 -2.17800 -1.60099 -3.49032 -4.06734 -3.55583 -3.85499  8.62744  8.62119  8.61302 -2.06888 -9.72636 21.57642 -2.22987 -11.68907
C	 -0.192751493	 0.849413283	 1.208464565
H	 -0.089512502	 1.378768828	 2.145235344
C	 -0.514536939	 -0.506378026	 1.207955084
H	 -0.653448087	 -1.027684326	 2.145288230
C	 -0.664068652	 -1.186812844	 -0.000007313
H	 -0.909822287	 -2.240542587	 0.001400408
C	 -0.493259324	 -0.511653437	 -1.207914472
H	 -0.611197157	 -1.036894738	 -2.146074136
C	 -0.173315661	 0.844994681	 -1.208560179
H	 -0.052796875	 1.370158546	 -2.145766495
C	 -0.021166787	 1.523494917	 -0.000007617
H	 0.230192331	 2.575772662	 0.000159674
N	 -2.731470212	 2.315653321	 -0.016031615
H	 -1.940728527	 2.943884004	 -0.057245622
C	 -3.161368463	 1.953648088	 1.266530938
O	 -2.630175573	 2.427457721	 2.256758689
C	 -4.259322571	 1.002472317	 1.258519666
H	 -4.667034467	 0.674622995	 2.199159412
C	 -4.748305807	 0.554782722	 0.084101713
H	 -5.563681796	 -0.151022844	 0.025381642
N	 -4.234762560	 0.965811520	 -1.115974662
H	 -4.608116457	 0.628150413	 -1.987029680
C	 -3.193428275	 1.872003550	 -1.235207384
O	 -2.751460228	 2.233005403	 -2.308511872
