24
0  1  0  1  0  1  12  12 -4.92923 -4.66234 -5.67924 -5.94613 -5.72663 -5.85386  0.79860  0.79406  0.79327 -5.16058 -3.26550  5.61769 -1.01873 -6.49405
C	 -3.718989425	 0.680469409	 -1.208475990
H	 -3.822228416	 1.209824954	 -2.145246769
C	 -3.397203979	 -0.675321900	 -1.207966509
H	 -3.258292831	 -1.196628200	 -2.145299655
C	 -3.247672266	 -1.355756718	 -0.000004112
H	 -3.001918631	 -2.409486461	 -0.001411833
C	 -3.418481594	 -0.680597311	 1.207903047
H	 -3.300543761	 -1.205838612	 2.146062711
C	 -3.738425257	 0.676050807	 1.208548754
H	 -3.858944043	 1.201214672	 2.145755070
C	 -3.890574132	 1.354551043	 -0.000003808
H	 -4.141933249	 2.406828788	 -0.000171099
N	 -0.275296645	 0.626714015	 0.016031615
H	 -1.066038330	 1.254944699	 0.057245622
C	 0.154601606	 0.264708783	 -1.266530938
O	 -0.376591284	 0.738518416	 -2.256758689
C	 1.252555714	 -0.686466989	 -1.258519666
H	 1.660267610	 -1.014316311	 -2.199159412
C	 1.741538950	 -1.134156584	 -0.084101713
H	 2.556914939	 -1.839962149	 -0.025381642
N	 1.227995702	 -0.723127786	 1.115974662
H	 1.601349600	 -1.060788893	 1.987029680
C	 0.186661418	 0.183064245	 1.235207384
O	 -0.255306629	 0.544066098	 2.308511872
