24
0  1  0  1  0  1  12  12 76.45611 80.20874 71.35655 67.60392 71.17088 69.04930 119.39744 119.38689 119.24602 71.82917 -97.30531 241.78464 -26.57766 -46.07250
C	 -2.386717966	 0.680585944	 -1.208449331
H	 -2.489956957	 1.209941489	 -2.145220110
C	 -2.064932520	 -0.675205365	 -1.207939850
H	 -1.926021372	 -1.196511665	 -2.145272996
C	 -1.915400807	 -1.355640183	 0.000022547
H	 -1.669647172	 -2.409369926	 -0.001385174
C	 -2.086210135	 -0.680480776	 1.207929706
H	 -1.968272302	 -1.205722077	 2.146089370
C	 -2.406153798	 0.676167342	 1.208575413
H	 -2.526672584	 1.201331207	 2.145781729
C	 -2.558302673	 1.354667578	 0.000022851
H	 -2.809661790	 2.406945323	 -0.000144440
N	 -0.275296645	 0.626714015	 0.016031615
H	 -1.066038330	 1.254944699	 0.057245622
C	 0.154601606	 0.264708783	 -1.266530938
O	 -0.376591284	 0.738518416	 -2.256758689
C	 1.252555714	 -0.686466989	 -1.258519666
H	 1.660267610	 -1.014316311	 -2.199159412
C	 1.741538950	 -1.134156584	 -0.084101713
H	 2.556914939	 -1.839962149	 -0.025381642
N	 1.227995702	 -0.723127786	 1.115974662
H	 1.601349600	 -1.060788893	 1.987029680
C	 0.186661418	 0.183064245	 1.235207384
O	 -0.255306629	 0.544066098	 2.308511872
