24
0  1  0  1  0  1  12  12 -1.65135 -1.03963 -3.09640 -3.70812 -3.16299 -3.48291  9.27248  9.27202  9.26072 -1.74944 -10.57829 23.34662 -2.32253 -12.19524
C	 -0.203223682	 0.680534082	 1.377351214
H	 -0.099984691	 1.209889627	 2.314121993
C	 -0.525009128	 -0.675257227	 1.376841733
H	 -0.663920276	 -1.196563527	 2.314174879
C	 -0.674540841	 -1.355692045	 0.168879336
H	 -0.920294476	 -2.409421788	 0.170287057
C	 -0.503731513	 -0.680532638	 -1.039027823
H	 -0.621669346	 -1.205773939	 -1.977187487
C	 -0.183787850	 0.676115480	 -1.039673530
H	 -0.063269064	 1.201279345	 -1.976879846
C	 -0.031638976	 1.354615716	 0.168879032
H	 0.219720142	 2.406893461	 0.169046323
N	 -3.291377407	 0.894894902	 1.526767816
H	 -2.990960012	 1.834329476	 1.305731916
C	 -2.815766955	 0.366440049	 2.733149664
O	 -2.127424001	 1.042367673	 3.479151191
C	 -3.231366981	 -1.006279387	 2.963845831
H	 -2.924868109	 -1.494061176	 3.873045846
C	 -3.991458103	 -1.638481567	 2.046583602
H	 -4.326727355	 -2.657415111	 2.172347298
N	 -4.384319546	 -1.025748562	 0.887673426
H	 -4.953650929	 -1.504848608	 0.210569355
C	 -4.055327852	 0.279703899	 0.560051895
O	 -4.416822449	 0.813324698	 -0.470584373
