24
0  1  0  1  0  1  12  12 -1.47143 -0.88329 -3.23267 -3.82082 -3.30383 -3.60804 10.63368 10.63264 10.62002 -1.85526 -9.70281 22.96897 -2.01537 -13.10605
C	 -0.199888239	 0.511642027	 1.208464565
H	 -0.096649248	 1.040997572	 2.145235344
C	 -0.521673685	 -0.844149282	 1.207955084
H	 -0.660584833	 -1.365455582	 2.145288230
C	 -0.671205398	 -1.524584100	 -0.000007313
H	 -0.916959033	 -2.578313843	 0.001400408
C	 -0.500396070	 -0.849424693	 -1.207914472
H	 -0.618333903	 -1.374665994	 -2.146074136
C	 -0.180452407	 0.507223425	 -1.208560179
H	 -0.059933621	 1.032387290	 -2.145766495
C	 -0.028303533	 1.185723661	 -0.000007617
H	 0.223055585	 2.238001406	 0.000159674
N	 -3.697252865	 -0.765649883	 -0.016031615
H	 -3.845945754	 0.233267846	 -0.057245622
C	 -3.598696263	 -1.318955306	 1.266530938
O	 -3.743430997	 -0.622023952	 2.256758689
C	 -3.323930935	 -2.745399341	 1.258519666
H	 -3.243861042	 -3.262412861	 2.199159412
C	 -3.180711991	 -3.392716043	 0.084101713
H	 -2.977154436	 -4.451755146	 0.025381642
N	 -3.279901749	 -2.742460146	 -1.115974662
H	 -3.174155600	 -3.234624659	 -1.987029680
C	 -3.544019925	 -1.387542186	 -1.235207384
O	 -3.635672677	 -0.824285704	 -2.308511872
