24
0  1  0  1  0  1  12  12 -0.45978  0.00976 -1.90800 -2.37754 -1.95413 -2.20278  9.09764  9.09671  9.08755 -0.42319 -7.75763 19.89744 -2.47564 -10.08736
C	 -3.104491110	 0.680534082	 -1.208457283
H	 -3.207730101	 1.209889627	 -2.145228062
C	 -2.782705664	 -0.675257227	 -1.207947802
H	 -2.643794516	 -1.196563527	 -2.145280948
C	 -2.633173951	 -1.355692045	 0.000014595
H	 -2.387420316	 -2.409421788	 -0.001393126
C	 -2.803983279	 -0.680532638	 1.207921754
H	 -2.686045446	 -1.205773939	 2.146081418
C	 -3.123926942	 0.676115480	 1.208567461
H	 -3.244445728	 1.201279345	 2.145773777
C	 -3.276075817	 1.354615716	 0.000014899
H	 -3.527434934	 2.406893461	 -0.000152392
N	 0.615136985	 0.894894902	 0.162171489
H	 0.314719590	 1.834329476	 0.383207389
C	 0.139526533	 0.366440049	 -1.044210358
O	 -0.548816421	 1.042367673	 -1.790211886
C	 0.555126559	 -1.006279387	 -1.274906525
H	 0.248627687	 -1.494061176	 -2.184106540
C	 1.315217681	 -1.638481567	 -0.357644297
H	 1.650486933	 -2.657415111	 -0.483407992
N	 1.708079123	 -1.025748562	 0.801265880
H	 2.277410507	 -1.504848608	 1.478369950
C	 1.379087430	 0.279703899	 1.128887411
O	 1.740582027	 0.813324698	 2.159523678
