24
0  1  0  1  0  1  12  12 -2.01627 -1.71242 -3.09741 -3.40126 -3.13346 -3.29000  4.98238  4.98191  4.97783 -2.18879 -3.99926 10.78682 -1.52295 -7.45339
C	 -3.316578021	 0.680510070	 -1.208464733
H	 -3.419817012	 1.209865615	 -2.145235512
C	 -2.994792575	 -0.675281239	 -1.207955252
H	 -2.855881427	 -1.196587539	 -2.145288398
C	 -2.845260862	 -1.355716057	 0.000007145
H	 -2.599507227	 -2.409445800	 -0.001400576
C	 -3.016070190	 -0.680556650	 1.207914304
H	 -2.898132357	 -1.205797951	 2.146073968
C	 -3.336013853	 0.676091468	 1.208560011
H	 -3.456532639	 1.201255333	 2.145766327
C	 -3.488162728	 1.354591704	 0.000007449
H	 -3.739521845	 2.406869449	 -0.000159842
N	 0.615136985	 0.894894902	 0.162171489
H	 0.314719590	 1.834329476	 0.383207389
C	 0.139526533	 0.366440049	 -1.044210358
O	 -0.548816421	 1.042367673	 -1.790211886
C	 0.555126559	 -1.006279387	 -1.274906525
H	 0.248627687	 -1.494061176	 -2.184106540
C	 1.315217681	 -1.638481567	 -0.357644297
H	 1.650486933	 -2.657415111	 -0.483407992
N	 1.708079123	 -1.025748562	 0.801265880
H	 2.277410507	 -1.504848608	 1.478369950
C	 1.379087430	 0.279703899	 1.128887411
O	 1.740582027	 0.813324698	 2.159523678
