24
0  1  0  1  0  1  12  12 52.01044 54.40370 47.54768 45.15442 47.39601 46.06333 85.62072 85.61641 85.52926 49.48555 -68.59168 165.12738 -12.22281 -34.82735
C	 -2.349282704	 0.680635759	 -1.208449331
H	 -2.452521695	 1.209991304	 -2.145220110
C	 -2.027497258	 -0.675155550	 -1.207939850
H	 -1.888586110	 -1.196461850	 -2.145272996
C	 -1.877965545	 -1.355590368	 0.000022547
H	 -1.632211910	 -2.409320111	 -0.001385174
C	 -2.048774873	 -0.680430961	 1.207929706
H	 -1.930837040	 -1.205672262	 2.146089370
C	 -2.368718536	 0.676217157	 1.208575413
H	 -2.489237322	 1.201381022	 2.145781729
C	 -2.520867411	 1.354717393	 0.000022851
H	 -2.772226528	 2.406995138	 -0.000144440
N	 0.743902754	 0.923289422	 0.016031615
H	 0.892595643	 1.922207152	 0.057245622
C	 0.645346152	 0.369984000	 -1.266530938
O	 0.790080886	 1.066915354	 -2.256758689
C	 0.370580824	 -1.056460036	 -1.258519666
H	 0.290510931	 -1.573473556	 -2.199159412
C	 0.227361880	 -1.703776738	 -0.084101713
H	 0.023804325	 -2.762815840	 -0.025381642
N	 0.326551637	 -1.053520840	 1.115974662
H	 0.220805489	 -1.545685354	 1.987029680
C	 0.590669814	 0.301397120	 1.235207384
O	 0.682322566	 0.864653602	 2.308511872
