24
0  1  0  1  0  1  12  12 -3.72998 -3.56337 -4.34880 -4.51541 -4.37999 -4.45812  0.83423  0.83290  0.83327 -3.92173 -2.15921  3.89467 -0.48508 -5.17211
C	 0.326710061	 0.680462044	 1.292918294
H	 0.429949052	 1.209817589	 2.229689073
C	 0.004924615	 -0.675329265	 1.292408813
H	 -0.133986533	 -1.196635565	 2.229741959
C	 -0.144607098	 -1.355764083	 0.084446416
H	 -0.390360733	 -2.409493826	 0.085854137
C	 0.026202230	 -0.680604676	 -1.123460743
H	 -0.091735603	 -1.205845977	 -2.061620407
C	 0.346145893	 0.676043442	 -1.124106450
H	 0.466664679	 1.201207307	 -2.061312766
C	 0.498294767	 1.354543678	 0.084446112
H	 0.749653885	 2.406821423	 0.084613403
N	 -3.253796786	 0.894894902	 -1.554535388
H	 -2.912165384	 1.834329476	 -1.404884242
C	 -4.060748887	 0.366440049	 -0.539453730
O	 -4.362633684	 1.042367673	 0.429669518
C	 -4.468337641	 -1.006279387	 -0.784025827
H	 -5.102478515	 -1.494061176	 -0.063990010
C	 -4.054010810	 -1.638481567	 -1.900915163
H	 -4.330559991	 -2.657415111	 -2.128385004
N	 -3.246795878	 -1.025748562	 -2.820598240
H	 -2.945072243	 -1.504848608	 -3.652205717
C	 -2.798571462	 0.279703899	 -2.699493841
O	 -2.086761571	 0.813324698	 -3.527875480
