24
0  1  0  1  0  1  12  12 -2.05530 -1.94593 -2.53674 -2.64611 -2.55662 -2.60824  1.38814  1.38813  1.38841 -2.28866 -0.72481  2.69201 -0.54127 -3.71459
C	 -3.743843882	 0.680462044	 -1.208471329
H	 -3.847082873	 1.209817589	 -2.145242108
C	 -3.422058436	 -0.675329265	 -1.207961848
H	 -3.283147288	 -1.196635565	 -2.145294994
C	 -3.272526723	 -1.355764083	 0.000000549
H	 -3.026773088	 -2.409493826	 -0.001407172
C	 -3.443336051	 -0.680604676	 1.207907708
H	 -3.325398218	 -1.205845977	 2.146067372
C	 -3.763279714	 0.676043442	 1.208553415
H	 -3.883798500	 1.201207307	 2.145759731
C	 -3.915428589	 1.354543678	 0.000000853
H	 -4.166787706	 2.406821423	 -0.000166438
N	 0.661022384	 0.894894902	 -0.134403918
H	 0.319390982	 1.834329476	 -0.284055064
C	 1.467974485	 0.366440049	 -1.149485575
O	 1.769859282	 1.042367673	 -2.118608824
C	 1.875563239	 -1.006279387	 -0.904913478
H	 2.509704113	 -1.494061176	 -1.624949295
C	 1.461236408	 -1.638481567	 0.211975857
H	 1.737785589	 -2.657415111	 0.439445699
N	 0.654021475	 -1.025748562	 1.131658934
H	 0.352297841	 -1.504848608	 1.963266411
C	 0.205797060	 0.279703899	 1.010554536
O	 -0.506012831	 0.813324698	 1.838936174
