24
0  1  0  1  0  1  12  12 -2.95417 -2.14460 -5.49605 -6.30562 -5.57853 -5.99957 12.78009 12.77942 12.77777 -3.15253 -14.23898 31.24638 -2.99597 -17.16396
C	 0.838459153	 1.200831043	 0.295389987
H	 1.533703216	 2.027431402	 0.253168976
C	 1.312849972	 -0.098634673	 0.462896437
H	 2.376347576	 -0.277954925	 0.543314621
C	 0.416213165	 -1.164245976	 0.533885281
H	 0.786443424	 -2.173120562	 0.659761515
C	 -0.955119446	 -0.930884283	 0.438780365
H	 -1.652518952	 -1.755677216	 0.496067870
C	 -1.430818331	 0.368789485	 0.273199122
H	 -2.494821197	 0.549807330	 0.211490261
C	 -0.533065445	 1.433074954	 0.199393016
H	 -0.901531856	 2.441728407	 0.067785260
N	 -0.275804152	 0.674183275	 3.194265248
H	 -0.649111545	 1.575944705	 2.931372277
C	 1.116342530	 0.601196369	 3.326278587
O	 1.807252849	 1.595620061	 3.181444522
C	 1.595242644	 -0.732881340	 3.644388789
H	 2.652294738	 -0.885097279	 3.778509925
C	 0.715533417	 -1.747262516	 3.770605314
H	 1.021460938	 -2.755683125	 4.007129675
N	 -0.629712470	 -1.562230596	 3.600513171
H	 -1.278460301	 -2.324789539	 3.699382342
C	 -1.204160779	 -0.337429568	 3.301098555
O	 -2.401949191	 -0.186606293	 3.158986363
