24
0  1  0  1  0  1  12  12 58.44875 61.94545 51.87607 48.37936 51.67261 49.72609 103.55213 103.54630 103.44528 55.84075 -94.22682 215.74443 -18.38366 -47.29320
C	 0.863839250	 1.129443455	 0.966670835
H	 1.559083313	 1.956043814	 0.924449824
C	 1.338230069	 -0.170022261	 1.134177285
H	 2.401727673	 -0.349342513	 1.214595469
C	 0.441593262	 -1.235633564	 1.205166129
H	 0.811823521	 -2.244508150	 1.331042363
C	 -0.929739349	 -1.002271871	 1.110061213
H	 -1.627138855	 -1.827064804	 1.167348718
C	 -1.405438234	 0.297401897	 0.944479970
H	 -2.469441100	 0.478419742	 0.882771109
C	 -0.507685348	 1.361687366	 0.870673864
H	 -0.876151759	 2.370340819	 0.739066108
N	 -0.275804152	 0.674183275	 3.194265248
H	 -0.649111545	 1.575944705	 2.931372277
C	 1.116342530	 0.601196369	 3.326278587
O	 1.807252849	 1.595620061	 3.181444522
C	 1.595242644	 -0.732881340	 3.644388789
H	 2.652294738	 -0.885097279	 3.778509925
C	 0.715533417	 -1.747262516	 3.770605314
H	 1.021460938	 -2.755683125	 4.007129675
N	 -0.629712470	 -1.562230596	 3.600513171
H	 -1.278460301	 -2.324789539	 3.699382342
C	 -1.204160779	 -0.337429568	 3.301098555
O	 -2.401949191	 -0.186606293	 3.158986363
