23
0  1  0  1  0  1  11  12 -4.38167 -3.96955 -5.58690 -5.99901 -5.63615 -5.84809  4.07520  4.07175  4.06663 -4.52498 -6.59882 12.71201 -1.21724 -9.42093
N	 -0.531995815	 -1.262805711	 -0.000280259
C	 -0.243188149	 -0.613044801	 -1.137522249
H	 -0.321168429	 -1.190837647	 -2.049769655
C	 0.126437856	 0.728751649	 -1.189187129
H	 0.337749132	 1.192768952	 -2.141958126
C	 0.206532034	 1.446510593	 -0.000011853
H	 0.486073591	 2.491087647	 0.000390382
C	 -0.085504069	 0.788176852	 1.190169609
H	 -0.049602908	 1.302609014	 2.139408416
C	 -0.445790491	 -0.555862683	 1.137126126
H	 -0.677736803	 -1.093691321	 2.048047550
N	 -2.666850095	 2.299632233	 -0.323230900
H	 -1.970879832	 2.935092605	 -0.688232800
C	 -2.846003127	 2.316501171	 1.066064949
O	 -2.201942334	 3.082842188	 1.763982923
C	 -3.830061413	 1.355817751	 1.528817538
H	 -4.045145264	 1.300471524	 2.581953145
C	 -4.441934754	 0.544981593	 0.641035220
H	 -5.166279027	 -0.198678467	 0.937703912
N	 -4.182227537	 0.611963826	 -0.699456306
H	 -4.598661598	 -0.041391870	 -1.341437373
C	 -3.260944176	 1.478437191	 -1.257750329
O	 -3.010172134	 1.508152743	 -2.447538463
