23
0  1  0  1  0  1  11  12 10.17120 11.49960  7.57173  6.24333  7.47438  6.74878 30.59271 30.58666 30.55372 10.47199 -28.59995 66.20984 -5.40999 -21.72790
N	 -1.024317597	 -1.012899848	 -0.000315817
C	 -0.735509931	 -0.363138938	 -1.137557807
H	 -0.813490211	 -0.940931784	 -2.049805213
C	 -0.365883926	 0.978657512	 -1.189222687
H	 -0.154572650	 1.442674815	 -2.141993684
C	 -0.285789748	 1.696416456	 -0.000047411
H	 -0.006248191	 2.740993510	 0.000354824
C	 -0.577825851	 1.038082715	 1.190134051
H	 -0.541924690	 1.552514877	 2.139372858
C	 -0.938112273	 -0.305956820	 1.137090568
H	 -1.170058585	 -0.843785458	 2.048011992
N	 -2.666850095	 2.299632233	 -0.323230900
H	 -1.970879832	 2.935092605	 -0.688232800
C	 -2.846003127	 2.316501171	 1.066064949
O	 -2.201942334	 3.082842188	 1.763982923
C	 -3.830061413	 1.355817751	 1.528817538
H	 -4.045145264	 1.300471524	 2.581953145
C	 -4.441934754	 0.544981593	 0.641035220
H	 -5.166279027	 -0.198678467	 0.937703912
N	 -4.182227537	 0.611963826	 -0.699456306
H	 -4.598661598	 -0.041391870	 -1.341437373
C	 -3.260944176	 1.478437191	 -1.257750329
O	 -3.010172134	 1.508152743	 -2.447538463
