23
0  1  0  1  0  1  11  12 13.24543 14.73735 10.53898  9.04706 10.44992  9.62018 33.94043 33.93902 33.89465 11.52179 -35.88399 78.32597 -6.69410 -24.22608
N	 -1.052232021	 -1.679043473	 -0.000315817
C	 -0.763424355	 -1.029282563	 -1.137557807
H	 -0.841404635	 -1.607075409	 -2.049805213
C	 -0.393798350	 0.312513887	 -1.189222687
H	 -0.182487074	 0.776531190	 -2.141993684
C	 -0.313704172	 1.030272831	 -0.000047411
H	 -0.034162615	 2.074849885	 0.000354824
C	 -0.605740275	 0.371939090	 1.190134051
H	 -0.569839114	 0.886371252	 2.139372858
C	 -0.966026697	 -0.972100445	 1.137090568
H	 -1.197973009	 -1.509929083	 2.048011992
N	 -3.663078558	 -0.815102871	 -0.323230900
H	 -3.865418252	 0.105355243	 -0.688232800
C	 -3.767264003	 -0.961819479	 1.066064949
O	 -4.108904395	 -0.020875962	 1.763982923
C	 -3.427316899	 -2.294380664	 1.528817538
H	 -3.486927586	 -2.508321856	 2.581953145
C	 -3.031048858	 -3.229696600	 0.641035220
H	 -2.749192491	 -4.228827171	 0.937703912
N	 -2.959203565	 -2.971292436	 -0.699456306
H	 -2.601597965	 -3.658612760	 -1.341437373
C	 -3.248949830	 -1.740200959	 -1.257750329
O	 -3.149298232	 -1.508168224	 -2.447538463
