23
0  1  0  1  0  1  11  12 -4.76927 -4.48731 -5.71248 -5.99444 -5.75117 -5.89298  1.57802  1.57541  1.57264 -4.97798 -4.27140  7.24309 -0.76305 -7.18663
N	 -0.367888554	 -1.346107665	 -0.000268406
C	 -0.079080888	 -0.696346755	 -1.137510396
H	 -0.157061168	 -1.274139601	 -2.049757802
C	 0.290545117	 0.645449695	 -1.189175276
H	 0.501856393	 1.109466998	 -2.141946273
C	 0.370639295	 1.363208639	 -0.000000000
H	 0.650180852	 2.407785693	 0.000402235
C	 0.078603192	 0.704874898	 1.190181462
H	 0.114504353	 1.219307060	 2.139420269
C	 -0.281683230	 -0.639164637	 1.137137979
H	 -0.513629542	 -1.176993275	 2.048059403
N	 -2.666850095	 2.299632233	 -0.323230900
H	 -1.970879832	 2.935092605	 -0.688232800
C	 -2.846003127	 2.316501171	 1.066064949
O	 -2.201942334	 3.082842188	 1.763982923
C	 -3.830061413	 1.355817751	 1.528817538
H	 -4.045145264	 1.300471524	 2.581953145
C	 -4.441934754	 0.544981593	 0.641035220
H	 -5.166279027	 -0.198678467	 0.937703912
N	 -4.182227537	 0.611963826	 -0.699456306
H	 -4.598661598	 -0.041391870	 -1.341437373
C	 -3.260944176	 1.478437191	 -1.257750329
O	 -3.010172134	 1.508152743	 -2.447538463
