23
0  1  0  1  0  1  11  12 -4.61887 -4.49890 -5.15417 -5.27414 -5.17182 -5.23037 -1.55571 -1.55601 -1.55458 -4.88642 -2.67796  2.09686 -0.47637 -3.82895
N	 -3.349579791	 -1.346182192	 0.000244701
C	 -3.638387458	 -0.696421282	 1.137486691
H	 -3.560407177	 -1.274214128	 2.049734097
C	 -4.008013462	 0.645375168	 1.189151571
H	 -4.219324738	 1.109392471	 2.141922568
C	 -4.088107641	 1.363134112	 -0.000023705
H	 -4.367649197	 2.407711166	 -0.000425940
C	 -3.796071537	 0.704800371	 -1.190205167
H	 -3.831972699	 1.219232533	 -2.139443974
C	 -3.435785115	 -0.639239164	 -1.137161684
H	 -3.203838804	 -1.177067802	 -2.048083108
N	 0.776709850	 0.850321439	 0.323230900
H	 0.979049543	 1.770779554	 0.688232800
C	 0.880895295	 0.703604831	 -1.066064949
O	 1.222535686	 1.644548349	 -1.763982923
C	 0.540948190	 -0.628956353	 -1.528817538
H	 0.600558877	 -0.842897545	 -2.581953145
C	 0.144680150	 -1.564272290	 -0.641035220
H	 -0.137176217	 -2.563402861	 -0.937703912
N	 0.072834857	 -1.305868126	 0.699456306
H	 -0.284770744	 -1.993188449	 1.341437373
C	 0.362581122	 -0.074776649	 1.257750329
O	 0.262929524	 0.157256086	 2.447538463
