23
0  1  0  1  0  1  11  12 -2.54644 -1.95808 -3.84196 -4.43032 -3.89716 -4.20772  7.91068  7.91109  7.90558 -2.69252 -10.72819 21.97098 -2.05626 -11.87904
N	 -0.712377404	 -1.346033807	 -0.166824846
C	 -0.423569738	 -0.696272897	 -1.304066836
H	 -0.501550018	 -1.274065743	 -2.216314242
C	 -0.053943733	 0.645523553	 -1.355731716
H	 0.157367543	 1.109540856	 -2.308502713
C	 0.026150445	 1.363282497	 -0.166556440
H	 0.305692002	 2.407859551	 -0.166154205
C	 -0.265885658	 0.704948756	 1.023625022
H	 -0.229984497	 1.219380918	 1.972863829
C	 -0.626172080	 -0.639090779	 0.970581539
H	 -0.858118392	 -1.176919417	 1.881502963
N	 -3.096424471	 0.857093427	 -1.837293723
H	 -2.667108237	 1.755403384	 -2.010895770
C	 -3.932741634	 0.782125840	 -0.715920997
O	 -4.130490421	 1.767827025	 -0.024205052
C	 -4.486173520	 -0.541879550	 -0.501104382
H	 -5.150088592	 -0.697352714	 0.331640325
C	 -4.150085011	 -1.550020932	 -1.332186311
H	 -4.519663310	 -2.556221572	 -1.202998943
N	 -3.314062993	 -1.362159008	 -2.397375061
H	 -3.022486690	 -2.136198669	 -2.970329288
C	 -2.719147434	 -0.151129382	 -2.698562812
O	 -1.949041547	 -0.000008938	 -3.627790969
