23
0  1  0  1  0  1  11  12 58.33031 61.88757 51.64685 48.08959 51.46244 49.47021 103.45159 103.44716 103.34691 55.55604 -95.08518 218.48244 -20.26382 -47.57741
N	 1.299209495	 0.079372642	 1.323687658
C	 0.700389130	 -1.107752147	 1.147428309
H	 1.339932065	 -1.978826540	 1.213269492
C	 -0.662859830	 -1.257952695	 0.905142474
H	 -1.081961614	 -2.246172454	 0.780593341
C	 -1.459413510	 -0.119243404	 0.837509633
H	 -2.522558587	 -0.195257830	 0.655220801
C	 -0.855168214	 1.121332981	 1.013799643
H	 -1.430360145	 2.035197149	 0.982332517
C	 0.516172730	 1.166805493	 1.251325337
H	 1.013148673	 2.118748598	 1.391524530
N	 -0.714834682	 -0.284904059	 3.278835825
H	 -1.609723701	 -0.716767550	 3.094232337
C	 -0.714579796	 1.112905733	 3.371846826
O	 -1.754462873	 1.741105536	 3.256996696
C	 0.604914957	 1.671987078	 3.599409893
H	 0.706231323	 2.739209248	 3.695278074
C	 1.674788548	 0.853294776	 3.670929946
H	 2.678667588	 1.221959474	 3.819356479
N	 1.556727407	 -0.503998488	 3.558375282
H	 2.370163401	 -1.096185838	 3.550207643
C	 0.356280470	 -1.151230916	 3.331993585
O	 0.264143223	 -2.356648992	 3.198414306
