23
0  1  0  1  0  1  11  12 -4.90999 -4.51421 -6.03190 -6.42768 -6.07264 -6.28108  2.68984  2.68832  2.68076 -5.31480 -7.62479 12.71474 -1.54649 -8.85827
N	 -2.769650204	 -1.346070401	 0.000280259
C	 -3.058457871	 -0.696309491	 1.137522249
H	 -2.980477590	 -1.274102337	 2.049769655
C	 -3.428083875	 0.645486959	 1.189187129
H	 -3.639395151	 1.109504262	 2.141958126
C	 -3.508178054	 1.363245903	 0.000011853
H	 -3.787719610	 2.407822957	 -0.000390382
C	 -3.216141950	 0.704912162	 -1.190169609
H	 -3.252043112	 1.219344324	 -2.139408416
C	 -2.855855528	 -0.639127373	 -1.137126126
H	 -2.623909217	 -1.176956011	 -2.048047550
N	 0.776709850	 0.850321439	 0.323230900
H	 0.979049543	 1.770779554	 0.688232800
C	 0.880895295	 0.703604831	 -1.066064949
O	 1.222535686	 1.644548349	 -1.763982923
C	 0.540948190	 -0.628956353	 -1.528817538
H	 0.600558877	 -0.842897545	 -2.581953145
C	 0.144680150	 -1.564272290	 -0.641035220
H	 -0.137176217	 -2.563402861	 -0.937703912
N	 0.072834857	 -1.305868126	 0.699456306
H	 -0.284770744	 -1.993188449	 1.341437373
C	 0.362581122	 -0.074776649	 1.257750329
O	 0.262929524	 0.157256086	 2.447538463
