23
0  1  0  1  0  1  11  12 13.10436 14.48278 10.56658  9.18816 10.46946  9.71542 33.07141 33.06962 33.03811 13.11859 -29.86668 71.09656 -6.58969 -21.52161
N	 -1.077080731	 -1.345959949	 0.332762339
C	 -0.788273065	 -0.696199039	 -0.804479651
H	 -0.866253345	 -1.273991885	 -1.716727057
C	 -0.418647060	 0.645597411	 -0.856144531
H	 -0.207335784	 1.109614714	 -1.808915528
C	 -0.338552882	 1.363356355	 0.333030745
H	 -0.059011325	 2.407933409	 0.333432980
C	 -0.630588985	 0.705022614	 1.523212207
H	 -0.594687824	 1.219454776	 2.472451014
C	 -0.990875407	 -0.639016921	 1.470168724
H	 -1.222821719	 -1.176845559	 2.381090148
N	 -3.520491022	 0.857093427	 1.277441381
H	 -3.456176688	 1.755403384	 0.818841592
C	 -2.967512336	 0.782125840	 2.562399653
O	 -2.467343149	 1.767827025	 3.079513098
C	 -3.058191633	 -0.541879550	 3.149094033
H	 -2.668971098	 -0.697352714	 4.140433705
C	 -3.609885442	 -1.550020932	 2.442491882
H	 -3.682795049	 -2.556221572	 2.827149761
N	 -4.114354950	 -1.362159008	 1.185881201
H	 -4.464759714	 -2.136198669	 0.646891602
C	 -4.077733414	 -0.151129382	 0.520075338
O	 -4.497415661	 -0.000008938	 -0.611470002
