23
0  1  0  1  0  1  11  12 11.94636 13.29414  9.40513  8.05735  9.31742  8.57098 31.42723 31.42217 31.37958 11.13958 -33.21039 72.33263 -6.57056 -21.41210
N	 -2.189720617	 -1.345958611	 0.000315817
C	 -2.478528284	 -0.696197701	 1.137557807
H	 -2.400548003	 -1.273990547	 2.049805213
C	 -2.848154288	 0.645598749	 1.189222687
H	 -3.059465564	 1.109616052	 2.141993684
C	 -2.928248467	 1.363357693	 0.000047411
H	 -3.207790023	 2.407934747	 -0.000354824
C	 -2.636212363	 0.705023952	 -1.190134051
H	 -2.672113525	 1.219456114	 -2.139372858
C	 -2.275925941	 -0.639015583	 -1.137090568
H	 -2.043979630	 -1.176844221	 -2.048011992
N	 0.776709850	 0.850321439	 0.323230900
H	 0.979049543	 1.770779554	 0.688232800
C	 0.880895295	 0.703604831	 -1.066064949
O	 1.222535686	 1.644548349	 -1.763982923
C	 0.540948190	 -0.628956353	 -1.528817538
H	 0.600558877	 -0.842897545	 -2.581953145
C	 0.144680150	 -1.564272290	 -0.641035220
H	 -0.137176217	 -2.563402861	 -0.937703912
N	 0.072834857	 -1.305868126	 0.699456306
H	 -0.284770744	 -1.993188449	 1.341437373
C	 0.362581122	 -0.074776649	 1.257750329
O	 0.262929524	 0.157256086	 2.447538463
