23
0  1  0  1  0  1  11  12 -4.47704 -4.26460 -5.18706 -5.39950 -5.21761 -5.32294  0.38659  0.38713  0.38670 -4.74034 -3.05117  4.68533 -0.77307 -5.60144
N	 -3.155857731	 -1.346138404	 0.000256553
C	 -3.444665398	 -0.696377494	 1.137498543
H	 -3.366685117	 -1.274170340	 2.049745949
C	 -3.814291402	 0.645418956	 1.189163423
H	 -4.025602678	 1.109436259	 2.141934420
C	 -3.894385581	 1.363177900	 -0.000011853
H	 -4.173927137	 2.407754954	 -0.000414088
C	 -3.602349477	 0.704844159	 -1.190193315
H	 -3.638250639	 1.219276321	 -2.139432122
C	 -3.242063055	 -0.639195376	 -1.137149832
H	 -3.010116744	 -1.177024014	 -2.048071256
N	 -0.088190437	 0.634207923	 0.323230900
H	 -0.784160701	 1.269668295	 0.688232800
C	 0.090962595	 0.651076861	 -1.066064949
O	 -0.553098199	 1.417417878	 -1.763982923
C	 1.075020880	 -0.309606559	 -1.528817538
H	 1.290104731	 -0.364952786	 -2.581953145
C	 1.686894222	 -1.120442717	 -0.641035220
H	 2.411238495	 -1.864102777	 -0.937703912
N	 1.427187005	 -1.053460484	 0.699456306
H	 1.843621065	 -1.706816180	 1.341437373
C	 0.505903644	 -0.186987119	 1.257750329
O	 0.255131602	 -0.157271567	 2.447538463
