23
0  1  0  1  0  1  11  12 -4.70201 -4.38716 -5.63000 -5.94485 -5.67052 -5.83011  1.79440  1.79308  1.79073 -4.92630 -4.67901  8.34402 -1.20677 -7.38454
N	 -2.962960066	 -1.346107665	 0.000268406
C	 -3.251767733	 -0.696346755	 1.137510396
H	 -3.173787452	 -1.274139601	 2.049757802
C	 -3.621393737	 0.645449695	 1.189175276
H	 -3.832705013	 1.109466998	 2.141946273
C	 -3.701487916	 1.363208639	 -0.000000000
H	 -3.981029472	 2.407785693	 -0.000402235
C	 -3.409451812	 0.704874898	 -1.190181462
H	 -3.445352974	 1.219307060	 -2.139420269
C	 -3.049165390	 -0.639164637	 -1.137137979
H	 -2.817219079	 -1.176993275	 -2.048059403
N	 -0.088190437	 0.634207923	 0.323230900
H	 -0.784160701	 1.269668295	 0.688232800
C	 0.090962595	 0.651076861	 -1.066064949
O	 -0.553098199	 1.417417878	 -1.763982923
C	 1.075020880	 -0.309606559	 -1.528817538
H	 1.290104731	 -0.364952786	 -2.581953145
C	 1.686894222	 -1.120442717	 -0.641035220
H	 2.411238495	 -1.864102777	 -0.937703912
N	 1.427187005	 -1.053460484	 0.699456306
H	 1.843621065	 -1.706816180	 1.341437373
C	 0.505903644	 -0.186987119	 1.257750329
O	 0.255131602	 -0.157271567	 2.447538463
