23
0  1  0  1  0  1  11  12 11.44440 12.61077  9.79790  8.63153  9.73293  9.07945 27.23167 27.22876 27.18909 11.87739 -30.90073 69.47849 -8.86180 -17.83857
N	 -2.101536018	 -1.345959949	 0.000296424
C	 -2.390343685	 -0.696199039	 1.137538414
H	 -2.312363404	 -1.273991885	 2.049785820
C	 -2.759969689	 0.645597411	 1.189203294
H	 -2.971280965	 1.109614714	 2.141974291
C	 -2.840063868	 1.363356355	 0.000028018
H	 -3.119605424	 2.407933409	 -0.000374217
C	 -2.548027764	 0.705022614	 -1.190153444
H	 -2.583928926	 1.219454776	 -2.139392251
C	 -2.187741342	 -0.639016921	 -1.137109961
H	 -1.955795031	 -1.176845559	 -2.048031385
N	 0.627807588	 0.857093427	 0.171869413
H	 0.198491353	 1.755403384	 0.345471459
C	 1.464124751	 0.782125840	 -0.949503313
O	 1.661873537	 1.767827025	 -1.641219259
C	 2.017556636	 -0.541879550	 -1.164319929
H	 2.681471708	 -0.697352714	 -1.997064635
C	 1.681468128	 -1.550020932	 -0.333237999
H	 2.051046427	 -2.556221572	 -0.462425367
N	 0.845446110	 -1.362159008	 0.731950751
H	 0.553869806	 -2.136198669	 1.304904977
C	 0.250530551	 -0.151129382	 1.033138502
O	 -0.519575336	 -0.000008938	 1.962366659
