23
0  1  0  1  0  1  11  12 -2.33878 -1.65508 -3.99369 -4.67739 -4.06016 -4.42028  9.39765  9.39188  9.38411 -2.22449 -12.11984 25.93599 -3.08613 -12.95451
N	 -2.577164736	 -1.346046187	 0.000292111
C	 -2.865972403	 -0.696285277	 1.137534101
H	 -2.787992122	 -1.274078123	 2.049781507
C	 -3.235598407	 0.645511173	 1.189198981
H	 -3.446909683	 1.109528476	 2.141969978
C	 -3.315692586	 1.363270117	 0.000023705
H	 -3.595234142	 2.407847171	 -0.000378530
C	 -3.023656482	 0.704936376	 -1.190157757
H	 -3.059557644	 1.219368538	 -2.139396564
C	 -2.663370060	 -0.639103159	 -1.137114274
H	 -2.431423749	 -1.176931797	 -2.048035698
N	 -0.088190437	 0.634207923	 0.323230900
H	 -0.784160701	 1.269668295	 0.688232800
C	 0.090962595	 0.651076861	 -1.066064949
O	 -0.553098199	 1.417417878	 -1.763982923
C	 1.075020880	 -0.309606559	 -1.528817538
H	 1.290104731	 -0.364952786	 -2.581953145
C	 1.686894222	 -1.120442717	 -0.641035220
H	 2.411238495	 -1.864102777	 -0.937703912
N	 1.427187005	 -1.053460484	 0.699456306
H	 1.843621065	 -1.706816180	 1.341437373
C	 0.505903644	 -0.186987119	 1.257750329
O	 0.255131602	 -0.157271567	 2.447538463
