23
0  1  0  1  0  1  11  12 -3.45736 -3.26582 -3.97551 -4.16706 -3.99546 -4.09548  0.84527  0.84594  0.84402 -3.69331 -3.29538  5.60007 -0.98343 -5.01457
N	 -2.962960066	 -1.346107665	 0.000268406
C	 -3.251767733	 -0.696346755	 1.137510396
H	 -3.173787452	 -1.274139601	 2.049757802
C	 -3.621393737	 0.645449695	 1.189175276
H	 -3.832705013	 1.109466998	 2.141946273
C	 -3.701487916	 1.363208639	 -0.000000000
H	 -3.981029472	 2.407785693	 -0.000402235
C	 -3.409451812	 0.704874898	 -1.190181462
H	 -3.445352974	 1.219307060	 -2.139420269
C	 -3.049165390	 -0.639164637	 -1.137137979
H	 -2.817219079	 -1.176993275	 -2.048059403
N	 0.627807588	 0.857093427	 0.171869413
H	 0.198491353	 1.755403384	 0.345471459
C	 1.464124751	 0.782125840	 -0.949503313
O	 1.661873537	 1.767827025	 -1.641219259
C	 2.017556636	 -0.541879550	 -1.164319929
H	 2.681471708	 -0.697352714	 -1.997064635
C	 1.681468128	 -1.550020932	 -0.333237999
H	 2.051046427	 -2.556221572	 -0.462425367
N	 0.845446110	 -1.362159008	 0.731950751
H	 0.553869806	 -2.136198669	 1.304904977
C	 0.250530551	 -0.151129382	 1.033138502
O	 -0.519575336	 -0.000008938	 1.962366659
