23
0  1  0  1  0  1  11  12 -3.38314 -3.01704 -4.67072 -5.03682 -4.70771 -4.90058  4.40312  4.40245  4.39628 -3.59783 -5.75026 12.16307 -1.59116 -8.41948
N	 -2.762703714	 -1.346070736	 0.000281935
C	 -3.051511381	 -0.696309826	 1.137523925
H	 -2.973531100	 -1.274102672	 2.049771331
C	 -3.421137385	 0.645486624	 1.189188805
H	 -3.632448661	 1.109503927	 2.141959802
C	 -3.501231564	 1.363245568	 0.000013529
H	 -3.780773120	 2.407822622	 -0.000388706
C	 -3.209195460	 0.704911827	 -1.190167933
H	 -3.245096622	 1.219343989	 -2.139406740
C	 -2.848909038	 -0.639127708	 -1.137124450
H	 -2.616962727	 -1.176956346	 -2.048045874
N	 0.648808552	 0.857093427	 0.387982929
H	 0.584494217	 1.755403384	 0.846582718
C	 0.095829866	 0.782125840	 -0.896975343
O	 -0.404339322	 1.767827025	 -1.414088788
C	 0.186509162	 -0.541879550	 -1.483669723
H	 -0.202711373	 -0.697352714	 -2.475009394
C	 0.738202972	 -1.550020932	 -0.777067572
H	 0.811112579	 -2.556221572	 -1.161725451
N	 1.242672480	 -1.362159008	 0.479543109
H	 1.593077243	 -2.136198669	 1.018532708
C	 1.206050944	 -0.151129382	 1.145348972
O	 1.625733191	 -0.000008938	 2.276894312
