23
0  1  0  1  0  1  11  12 -3.21045 -3.08922 -3.60980 -3.73102 -3.62500 -3.68623 -0.06111 -0.06044 -0.06028 -3.45221 -2.04701  2.89966 -0.60805 -3.69682
N	 -3.178316078	 -1.346144594	 0.000261401
C	 -3.467123745	 -0.696383684	 1.137503391
H	 -3.389143464	 -1.274176530	 2.049750797
C	 -3.836749749	 0.645412766	 1.189168271
H	 -4.048061025	 1.109430069	 2.141939268
C	 -3.916843928	 1.363171710	 -0.000007005
H	 -4.196385484	 2.407748764	 -0.000409240
C	 -3.624807824	 0.704837969	 -1.190188467
H	 -3.660708986	 1.219270131	 -2.139427274
C	 -3.264521402	 -0.639201566	 -1.137144984
H	 -3.032575091	 -1.177030204	 -2.048066408
N	 0.627807588	 0.857093427	 0.171869413
H	 0.198491353	 1.755403384	 0.345471459
C	 1.464124751	 0.782125840	 -0.949503313
O	 1.661873537	 1.767827025	 -1.641219259
C	 2.017556636	 -0.541879550	 -1.164319929
H	 2.681471708	 -0.697352714	 -1.997064635
C	 1.681468128	 -1.550020932	 -0.333237999
H	 2.051046427	 -2.556221572	 -0.462425367
N	 0.845446110	 -1.362159008	 0.731950751
H	 0.553869806	 -2.136198669	 1.304904977
C	 0.250530551	 -0.151129382	 1.033138502
O	 -0.519575336	 -0.000008938	 1.962366659
