23
0  1  0  1  0  1  11  12 -5.36857 -5.10259 -6.23527 -6.50125 -6.26600 -6.40343  0.22425  0.22345  0.22007 -5.73515 -5.07775  7.01716 -1.01054 -6.66402
N	 -2.962960066	 -1.346107665	 0.000268406
C	 -3.251767733	 -0.696346755	 1.137510396
H	 -3.173787452	 -1.274139601	 2.049757802
C	 -3.621393737	 0.645449695	 1.189175276
H	 -3.832705013	 1.109466998	 2.141946273
C	 -3.701487916	 1.363208639	 -0.000000000
H	 -3.981029472	 2.407785693	 -0.000402235
C	 -3.409451812	 0.704874898	 -1.190181462
H	 -3.445352974	 1.219307060	 -2.139420269
C	 -3.049165390	 -0.639164637	 -1.137137979
H	 -2.817219079	 -1.176993275	 -2.048059403
N	 0.776709850	 0.850321439	 0.323230900
H	 0.979049543	 1.770779554	 0.688232800
C	 0.880895295	 0.703604831	 -1.066064949
O	 1.222535686	 1.644548349	 -1.763982923
C	 0.540948190	 -0.628956353	 -1.528817538
H	 0.600558877	 -0.842897545	 -2.581953145
C	 0.144680150	 -1.564272290	 -0.641035220
H	 -0.137176217	 -2.563402861	 -0.937703912
N	 0.072834857	 -1.305868126	 0.699456306
H	 -0.284770744	 -1.993188449	 1.341437373
C	 0.362581122	 -0.074776649	 1.257750329
O	 0.262929524	 0.157256086	 2.447538463
