23
0  1  0  1  0  1  11  12 11.46303 12.82486  9.17755  7.81572  9.08628  8.33631 30.56967 30.56933 30.53276 10.91474 -29.32850 67.53553 -5.92935 -21.36294
N	 -1.056866255	 -1.345959949	 -0.333381286
C	 -0.768058589	 -0.696199039	 -1.470623276
H	 -0.846038869	 -1.273991885	 -2.382870682
C	 -0.398432584	 0.645597411	 -1.522288156
H	 -0.187121308	 1.109614714	 -2.475059153
C	 -0.318338406	 1.363356355	 -0.333112880
H	 -0.038796849	 2.407933409	 -0.332710645
C	 -0.610374509	 0.705022614	 0.857068582
H	 -0.574473348	 1.219454776	 1.806307389
C	 -0.970660931	 -0.639016921	 0.804025099
H	 -1.202607243	 -1.176845559	 1.714946523
N	 -3.096424471	 0.857093427	 -1.837293723
H	 -2.667108237	 1.755403384	 -2.010895770
C	 -3.932741634	 0.782125840	 -0.715920997
O	 -4.130490421	 1.767827025	 -0.024205052
C	 -4.486173520	 -0.541879550	 -0.501104382
H	 -5.150088592	 -0.697352714	 0.331640325
C	 -4.150085011	 -1.550020932	 -1.332186311
H	 -4.519663310	 -2.556221572	 -1.202998943
N	 -3.314062993	 -1.362159008	 -2.397375061
H	 -3.022486690	 -2.136198669	 -2.970329288
C	 -2.719147434	 -0.151129382	 -2.698562812
O	 -1.949041547	 -0.000008938	 -3.627790969
