23
0  1  0  1  0  1  11  12 -4.36808 -3.97840 -5.35262 -5.74230 -5.39645 -5.59698  3.39042  3.39029  3.38891 -4.53333 -6.72189 12.34637 -1.24284 -8.91497
N	 -0.540132979	 -1.346070736	 -0.083546626
C	 -0.251325313	 -0.696309826	 -1.220788616
H	 -0.329305593	 -1.274102672	 -2.133036022
C	 0.118300692	 0.645486624	 -1.272453496
H	 0.329611968	 1.109503927	 -2.225224493
C	 0.198394870	 1.363245568	 -0.083278220
H	 0.477936427	 2.407822622	 -0.082875985
C	 -0.093641233	 0.704911827	 1.106903242
H	 -0.057740072	 1.219343989	 2.056142049
C	 -0.453927655	 -0.639127708	 1.053859759
H	 -0.685873967	 -1.176956346	 1.964781183
N	 -3.096424471	 0.857093427	 -1.837293723
H	 -2.667108237	 1.755403384	 -2.010895770
C	 -3.932741634	 0.782125840	 -0.715920997
O	 -4.130490421	 1.767827025	 -0.024205052
C	 -4.486173520	 -0.541879550	 -0.501104382
H	 -5.150088592	 -0.697352714	 0.331640325
C	 -4.150085011	 -1.550020932	 -1.332186311
H	 -4.519663310	 -2.556221572	 -1.202998943
N	 -3.314062993	 -1.362159008	 -2.397375061
H	 -3.022486690	 -2.136198669	 -2.970329288
C	 -2.719147434	 -0.151129382	 -2.698562812
O	 -1.949041547	 -0.000008938	 -3.627790969
