23
0  1  0  1  0  1  11  12 -4.54322 -4.35035 -5.28846 -5.48133 -5.31867 -5.41315  0.24009  0.23812  0.23707 -4.77340 -2.88251  4.10579 -0.48962 -5.50706
N	 -0.203781293	 -1.429409619	 -0.000256553
C	 0.085026373	 -0.779648709	 -1.137498543
H	 0.007046093	 -1.357441555	 -2.049745949
C	 0.454652378	 0.562147741	 -1.189163423
H	 0.665963654	 1.026165044	 -2.141934420
C	 0.534746556	 1.279906685	 0.000011853
H	 0.814288113	 2.324483739	 0.000414088
C	 0.242710453	 0.621572944	 1.190193315
H	 0.278611614	 1.136005106	 2.139432122
C	 -0.117575969	 -0.722466591	 1.137149832
H	 -0.349522281	 -1.260295229	 2.048071256
N	 -2.666850095	 2.299632233	 -0.323230900
H	 -1.970879832	 2.935092605	 -0.688232800
C	 -2.846003127	 2.316501171	 1.066064949
O	 -2.201942334	 3.082842188	 1.763982923
C	 -3.830061413	 1.355817751	 1.528817538
H	 -4.045145264	 1.300471524	 2.581953145
C	 -4.441934754	 0.544981593	 0.641035220
H	 -5.166279027	 -0.198678467	 0.937703912
N	 -4.182227537	 0.611963826	 -0.699456306
H	 -4.598661598	 -0.041391870	 -1.341437373
C	 -3.260944176	 1.478437191	 -1.257750329
O	 -3.010172134	 1.508152743	 -2.447538463
