23
0  1  0  1  0  1  11  12 -1.59395 -1.12324 -2.51064 -2.98136 -2.54576 -2.80297  6.58967  6.58948  6.57674 -1.57758 -9.66811 20.22943 -2.77525 -9.36365
N	 -2.532248042	 -1.346033807	 0.000282415
C	 -2.821055709	 -0.696272897	 1.137524405
H	 -2.743075428	 -1.274065743	 2.049771811
C	 -3.190681713	 0.645523553	 1.189189285
H	 -3.401992989	 1.109540856	 2.141960282
C	 -3.270775892	 1.363282497	 0.000014009
H	 -3.550317448	 2.407859551	 -0.000388226
C	 -2.978739788	 0.704948756	 -1.190167453
H	 -3.014640950	 1.219380918	 -2.139406260
C	 -2.618453366	 -0.639090779	 -1.137123970
H	 -2.386507055	 -1.176919417	 -2.048045394
N	 0.627807588	 0.857093427	 0.171869413
H	 0.198491353	 1.755403384	 0.345471459
C	 1.464124751	 0.782125840	 -0.949503313
O	 1.661873537	 1.767827025	 -1.641219259
C	 2.017556636	 -0.541879550	 -1.164319929
H	 2.681471708	 -0.697352714	 -1.997064635
C	 1.681468128	 -1.550020932	 -0.333237999
H	 2.051046427	 -2.556221572	 -0.462425367
N	 0.845446110	 -1.362159008	 0.731950751
H	 0.553869806	 -2.136198669	 1.304904977
C	 0.250530551	 -0.151129382	 1.033138502
O	 -0.519575336	 -0.000008938	 1.962366659
