23
0  1  0  1  0  1  11  12 -5.33310 -4.90451 -6.45930 -6.88789 -6.50271 -6.72864  3.03271  3.03141  3.02371 -5.94634 -8.37457 14.38021 -1.66071 -10.29127
N	 -0.538974421	 -1.429341617	 -0.000280259
C	 -0.250166755	 -0.779580707	 -1.137522249
H	 -0.328147035	 -1.357373553	 -2.049769655
C	 0.119459250	 0.562215743	 -1.189187129
H	 0.330770526	 1.026233046	 -2.141958126
C	 0.199553428	 1.279974687	 -0.000011853
H	 0.479094985	 2.324551741	 0.000390382
C	 -0.092482675	 0.621640946	 1.190169609
H	 -0.056581514	 1.136073108	 2.139408416
C	 -0.452769097	 -0.722398589	 1.137126126
H	 -0.684715409	 -1.260227227	 2.048047550
N	 -3.663078558	 -0.815102871	 -0.323230900
H	 -3.865418252	 0.105355243	 -0.688232800
C	 -3.767264003	 -0.961819479	 1.066064949
O	 -4.108904395	 -0.020875962	 1.763982923
C	 -3.427316899	 -2.294380664	 1.528817538
H	 -3.486927586	 -2.508321856	 2.581953145
C	 -3.031048858	 -3.229696600	 0.641035220
H	 -2.749192491	 -4.228827171	 0.937703912
N	 -2.959203565	 -2.971292436	 -0.699456306
H	 -2.601597965	 -3.658612760	 -1.341437373
C	 -3.248949830	 -1.740200959	 -1.257750329
O	 -3.149298232	 -1.508168224	 -2.447538463
