23
0  1  0  1  0  1  11  12 -6.14048 -5.56462 -8.09558 -8.67145 -8.15280 -8.45360  5.64406  5.64446  5.64220 -6.50935 -9.75584 18.69728 -2.05852 -13.39228
N	 1.225497695	 0.037125255	 0.495373871
C	 0.626677330	 -1.149999534	 0.319114522
H	 1.266220265	 -2.021073927	 0.384955705
C	 -0.736571630	 -1.300200082	 0.076828687
H	 -1.155673414	 -2.288419841	 -0.047720446
C	 -1.533125310	 -0.161490791	 0.009195846
H	 -2.596270387	 -0.237505217	 -0.173092986
C	 -0.928880014	 1.079085594	 0.185485856
H	 -1.504071945	 1.992949762	 0.154018730
C	 0.442460930	 1.124558106	 0.423011550
H	 0.939436873	 2.076501211	 0.563210743
N	 -0.714834682	 -0.284904059	 3.278835825
H	 -1.609723701	 -0.716767550	 3.094232337
C	 -0.714579796	 1.112905733	 3.371846826
O	 -1.754462873	 1.741105536	 3.256996696
C	 0.604914957	 1.671987078	 3.599409893
H	 0.706231323	 2.739209248	 3.695278074
C	 1.674788548	 0.853294776	 3.670929946
H	 2.678667588	 1.221959474	 3.819356479
N	 1.556727407	 -0.503998488	 3.558375282
H	 2.370163401	 -1.096185838	 3.550207643
C	 0.356280470	 -1.151230916	 3.331993585
O	 0.264143223	 -2.356648992	 3.198414306
