23
0  1  0  1  0  1  11  12 -4.02317 -3.20129 -6.51554 -7.33742 -6.58775 -7.02253 11.31678 11.31731 11.31406 -4.34452 -14.98523 31.01969 -3.20096 -17.17802
N	 1.240240055	 0.045574733	 0.661036628
C	 0.641419690	 -1.141550056	 0.484777279
H	 1.280962625	 -2.012624449	 0.550618462
C	 -0.721829270	 -1.291750604	 0.242491444
H	 -1.140931054	 -2.279970363	 0.117942311
C	 -1.518382950	 -0.153041313	 0.174858603
H	 -2.581528027	 -0.229055739	 -0.007430229
C	 -0.914137654	 1.087535072	 0.351148613
H	 -1.489329585	 2.001399240	 0.319681487
C	 0.457203290	 1.133007584	 0.588674307
H	 0.954179233	 2.084950689	 0.728873500
N	 -0.714834682	 -0.284904059	 3.278835825
H	 -1.609723701	 -0.716767550	 3.094232337
C	 -0.714579796	 1.112905733	 3.371846826
O	 -1.754462873	 1.741105536	 3.256996696
C	 0.604914957	 1.671987078	 3.599409893
H	 0.706231323	 2.739209248	 3.695278074
C	 1.674788548	 0.853294776	 3.670929946
H	 2.678667588	 1.221959474	 3.819356479
N	 1.556727407	 -0.503998488	 3.558375282
H	 2.370163401	 -1.096185838	 3.550207643
C	 0.356280470	 -1.151230916	 3.331993585
O	 0.264143223	 -2.356648992	 3.198414306
