23
0  1  0  1  0  1  11  12 -4.57028 -4.39351 -5.15412 -5.33089 -5.18201 -5.26765 -0.26169 -0.26332 -0.26231 -4.75244 -2.98851  3.81430 -0.48744 -5.09079
N	 -0.195644129	 -1.346144594	 0.083009814
C	 0.093163537	 -0.696383684	 -1.054232176
H	 0.015183257	 -1.274176530	 -1.966479582
C	 0.462789542	 0.645412766	 -1.105897056
H	 0.674100818	 1.109430069	 -2.058668053
C	 0.542883720	 1.363171710	 0.083278220
H	 0.822425277	 2.407748764	 0.083680455
C	 0.250847617	 0.704837969	 1.273459682
H	 0.286748778	 1.219270131	 2.222698489
C	 -0.109438805	 -0.639201566	 1.220416199
H	 -0.341385117	 -1.177030204	 2.131337623
N	 -3.096424471	 0.857093427	 -1.837293723
H	 -2.667108237	 1.755403384	 -2.010895770
C	 -3.932741634	 0.782125840	 -0.715920997
O	 -4.130490421	 1.767827025	 -0.024205052
C	 -4.486173520	 -0.541879550	 -0.501104382
H	 -5.150088592	 -0.697352714	 0.331640325
C	 -4.150085011	 -1.550020932	 -1.332186311
H	 -4.519663310	 -2.556221572	 -1.202998943
N	 -3.314062993	 -1.362159008	 -2.397375061
H	 -3.022486690	 -2.136198669	 -2.970329288
C	 -2.719147434	 -0.151129382	 -2.698562812
O	 -1.949041547	 -0.000008938	 -3.627790969
