23
0  1  0  1  0  1  11  12 -3.29155 -3.18362 -3.87798 -3.98591 -3.89460 -3.94818 -0.12666 -0.12716 -0.12902 -3.56045 -1.54003  2.00084 -0.42468 -3.59657
N	 -3.363472770	 -1.346181523	 0.000241348
C	 -3.652280437	 -0.696420613	 1.137483338
H	 -3.574300156	 -1.274213459	 2.049730744
C	 -4.021906441	 0.645375837	 1.189148218
H	 -4.233217717	 1.109393140	 2.141919215
C	 -4.102000620	 1.363134781	 -0.000027058
H	 -4.381542176	 2.407711835	 -0.000429293
C	 -3.809964516	 0.704801040	 -1.190208520
H	 -3.845865678	 1.219233202	 -2.139447327
C	 -3.449678094	 -0.639238495	 -1.137165037
H	 -3.217731783	 -1.177067133	 -2.048086461
N	 0.648808552	 0.857093427	 0.387982929
H	 0.584494217	 1.755403384	 0.846582718
C	 0.095829866	 0.782125840	 -0.896975343
O	 -0.404339322	 1.767827025	 -1.414088788
C	 0.186509162	 -0.541879550	 -1.483669723
H	 -0.202711373	 -0.697352714	 -2.475009394
C	 0.738202972	 -1.550020932	 -0.777067572
H	 0.811112579	 -2.556221572	 -1.161725451
N	 1.242672480	 -1.362159008	 0.479543109
H	 1.593077243	 -2.136198669	 1.018532708
C	 1.206050944	 -0.151129382	 1.145348972
O	 1.625733191	 -0.000008938	 2.276894312
