23
0  1  0  1  0  1  11  12 -3.15200 -2.85206 -3.83694 -4.13688 -3.86347 -4.02398  2.76542  2.76586  2.76007 -3.31520 -5.55185 10.70525 -1.63018 -6.83842
N	 -2.747604054	 -1.346070736	 0.000275411
C	 -3.036411721	 -0.696309826	 1.137517401
H	 -2.958431440	 -1.274102672	 2.049764807
C	 -3.406037725	 0.645486624	 1.189182281
H	 -3.617349001	 1.109503927	 2.141953278
C	 -3.486131904	 1.363245568	 0.000007005
H	 -3.765673460	 2.407822622	 -0.000395230
C	 -3.194095800	 0.704911827	 -1.190174457
H	 -3.229996962	 1.219343989	 -2.139413264
C	 -2.833809378	 -0.639127708	 -1.137130974
H	 -2.601863067	 -1.176956346	 -2.048052398
N	 0.627807588	 0.857093427	 0.171869413
H	 0.198491353	 1.755403384	 0.345471459
C	 1.464124751	 0.782125840	 -0.949503313
O	 1.661873537	 1.767827025	 -1.641219259
C	 2.017556636	 -0.541879550	 -1.164319929
H	 2.681471708	 -0.697352714	 -1.997064635
C	 1.681468128	 -1.550020932	 -0.333237999
H	 2.051046427	 -2.556221572	 -0.462425367
N	 0.845446110	 -1.362159008	 0.731950751
H	 0.553869806	 -2.136198669	 1.304904977
C	 0.250530551	 -0.151129382	 1.033138502
O	 -0.519575336	 -0.000008938	 1.962366659
