23
0  1  0  1  0  1  11  12 -4.06554 -3.93347 -4.65976 -4.79183 -4.68295 -4.74578 -0.44406 -0.44556 -0.44529 -4.28996 -2.04260  2.31691 -0.32282 -4.24144
N	 -0.039674033	 -1.512711574	 -0.000244701
C	 0.249133633	 -0.862950664	 -1.137486691
H	 0.171153353	 -1.440743510	 -2.049734097
C	 0.618759638	 0.478845786	 -1.189151571
H	 0.830070914	 0.942863089	 -2.141922568
C	 0.698853816	 1.196604730	 0.000023705
H	 0.978395373	 2.241181784	 0.000425940
C	 0.406817713	 0.538270989	 1.190205167
H	 0.442718874	 1.052703151	 2.139443974
C	 0.046531291	 -0.805768546	 1.137161684
H	 -0.185415021	 -1.343597184	 2.048083108
N	 -2.666850095	 2.299632233	 -0.323230900
H	 -1.970879832	 2.935092605	 -0.688232800
C	 -2.846003127	 2.316501171	 1.066064949
O	 -2.201942334	 3.082842188	 1.763982923
C	 -3.830061413	 1.355817751	 1.528817538
H	 -4.045145264	 1.300471524	 2.581953145
C	 -4.441934754	 0.544981593	 0.641035220
H	 -5.166279027	 -0.198678467	 0.937703912
N	 -4.182227537	 0.611963826	 -0.699456306
H	 -4.598661598	 -0.041391870	 -1.341437373
C	 -3.260944176	 1.478437191	 -1.257750329
O	 -3.010172134	 1.508152743	 -2.447538463
