23
0  1  0  1  0  1  11  12 69.97302 73.10367 65.39120 62.26055 65.23506 63.47812 107.85075 107.85010 107.76169 66.73207 -88.60225 216.86532 -20.67996 -40.85103
N	 -1.431676820	 -1.345886090	 0.499277712
C	 -1.142869154	 -0.696125180	 -0.637964278
H	 -1.220849434	 -1.273918026	 -1.550211684
C	 -0.773243149	 0.645671270	 -0.689629158
H	 -0.561931873	 1.109688573	 -1.642400155
C	 -0.693148971	 1.363430214	 0.499546118
H	 -0.413607414	 2.408007268	 0.499948353
C	 -0.985185074	 0.705096473	 1.689727580
H	 -0.949283913	 1.219528635	 2.638966387
C	 -1.345471496	 -0.638943062	 1.636684097
H	 -1.577417808	 -1.176771700	 2.547605521
N	 -3.520491022	 0.857093427	 1.277441381
H	 -3.456176688	 1.755403384	 0.818841592
C	 -2.967512336	 0.782125840	 2.562399653
O	 -2.467343149	 1.767827025	 3.079513098
C	 -3.058191633	 -0.541879550	 3.149094033
H	 -2.668971098	 -0.697352714	 4.140433705
C	 -3.609885442	 -1.550020932	 2.442491882
H	 -3.682795049	 -2.556221572	 2.827149761
N	 -4.114354950	 -1.362159008	 1.185881201
H	 -4.464759714	 -2.136198669	 0.646891602
C	 -4.077733414	 -0.151129382	 0.520075338
O	 -4.497415661	 -0.000008938	 -0.611470002
