23
0  1  0  1  0  1  11  12 -2.13511 -1.53148 -3.58646 -4.19008 -3.64928 -3.96638  8.50894  8.50713  8.49658 -2.23339 -10.53296 22.31994 -2.26874 -11.75164
N	 -0.722484643	 -1.346033807	 0.166246967
C	 -0.433676977	 -0.696272897	 -0.970995023
H	 -0.511657257	 -1.274065743	 -1.883242429
C	 -0.064050972	 0.645523553	 -1.022659903
H	 0.147260304	 1.109540856	 -1.975430900
C	 0.016043206	 1.363282497	 0.166515373
H	 0.295584763	 2.407859551	 0.166917608
C	 -0.275992897	 0.704948756	 1.356696835
H	 -0.240091736	 1.219380918	 2.305935642
C	 -0.636279319	 -0.639090779	 1.303653352
H	 -0.868225631	 -1.176919417	 2.214574776
N	 -3.520491022	 0.857093427	 1.277441381
H	 -3.456176688	 1.755403384	 0.818841592
C	 -2.967512336	 0.782125840	 2.562399653
O	 -2.467343149	 1.767827025	 3.079513098
C	 -3.058191633	 -0.541879550	 3.149094033
H	 -2.668971098	 -0.697352714	 4.140433705
C	 -3.609885442	 -1.550020932	 2.442491882
H	 -3.682795049	 -2.556221572	 2.827149761
N	 -4.114354950	 -1.362159008	 1.185881201
H	 -4.464759714	 -2.136198669	 0.646891602
C	 -4.077733414	 -0.151129382	 0.520075338
O	 -4.497415661	 -0.000008938	 -0.611470002
