23
0  1  0  1  0  1  11  12 -4.24196 -3.77797 -5.47380 -5.93780 -5.52642 -5.76621  4.47287  4.46927  4.46461 -4.35158 -7.43295 14.76289 -1.91448 -9.76704
N	 -2.770062401	 -1.346076926	 0.000280259
C	 -3.058870068	 -0.696316016	 1.137522249
H	 -2.980889787	 -1.274108862	 2.049769655
C	 -3.428496072	 0.645480434	 1.189187129
H	 -3.639807348	 1.109497737	 2.141958126
C	 -3.508590251	 1.363239378	 0.000011853
H	 -3.788131807	 2.407816432	 -0.000390382
C	 -3.216554147	 0.704905637	 -1.190169609
H	 -3.252455309	 1.219337799	 -2.139408416
C	 -2.856267725	 -0.639133898	 -1.137126126
H	 -2.624321414	 -1.176962536	 -2.048047550
N	 -0.088190437	 0.634207923	 0.323230900
H	 -0.784160701	 1.269668295	 0.688232800
C	 0.090962595	 0.651076861	 -1.066064949
O	 -0.553098199	 1.417417878	 -1.763982923
C	 1.075020880	 -0.309606559	 -1.528817538
H	 1.290104731	 -0.364952786	 -2.581953145
C	 1.686894222	 -1.120442717	 -0.641035220
H	 2.411238495	 -1.864102777	 -0.937703912
N	 1.427187005	 -1.053460484	 0.699456306
H	 1.843621065	 -1.706816180	 1.341437373
C	 0.505903644	 -0.186987119	 1.257750329
O	 0.255131602	 -0.157271567	 2.447538463
