23
0  1  0  1  0  1  11  12 60.72178 63.49978 58.11573 55.33773 57.99368 56.41950 90.56591 90.55728 90.46553 57.17792 -98.97067 223.00239 -32.03491 -34.81889
N	 -1.670823994	 -1.345886090	 0.000310433
C	 -1.959631661	 -0.696125180	 1.137552423
H	 -1.881651380	 -1.273918026	 2.049799829
C	 -2.329257665	 0.645671270	 1.189217303
H	 -2.540568941	 1.109688573	 2.141988300
C	 -2.409351844	 1.363430214	 0.000042027
H	 -2.688893400	 2.408007268	 -0.000360208
C	 -2.117315740	 0.705096473	 -1.190139435
H	 -2.153216902	 1.219528635	 -2.139378242
C	 -1.757029318	 -0.638943062	 -1.137095952
H	 -1.525083007	 -1.176771700	 -2.048017376
N	 0.627807588	 0.857093427	 0.171869413
H	 0.198491353	 1.755403384	 0.345471459
C	 1.464124751	 0.782125840	 -0.949503313
O	 1.661873537	 1.767827025	 -1.641219259
C	 2.017556636	 -0.541879550	 -1.164319929
H	 2.681471708	 -0.697352714	 -1.997064635
C	 1.681468128	 -1.550020932	 -0.333237999
H	 2.051046427	 -2.556221572	 -0.462425367
N	 0.845446110	 -1.362159008	 0.731950751
H	 0.553869806	 -2.136198669	 1.304904977
C	 0.250530551	 -0.151129382	 1.033138502
O	 -0.519575336	 -0.000008938	 1.962366659
