23
0  1  0  1  0  1  11  12 -4.97128 -4.84662 -5.48118 -5.60585 -5.50108 -5.56215 -1.48048 -1.48202 -1.48322 -5.29531 -2.74206  2.45646 -0.50725 -4.50245
N	 -0.025716821	 -1.179639761	 -0.000244701
C	 0.263090845	 -0.529878851	 -1.137486691
H	 0.185110565	 -1.107671697	 -2.049734097
C	 0.632716850	 0.811917599	 -1.189151571
H	 0.844028126	 1.275934902	 -2.141922568
C	 0.712811028	 1.529676543	 0.000023705
H	 0.992352585	 2.574253597	 0.000425940
C	 0.420774925	 0.871342802	 1.190205167
H	 0.456676086	 1.385774964	 2.139443974
C	 0.060488503	 -0.472696733	 1.137161684
H	 -0.171457809	 -1.010525371	 2.048083108
N	 -3.663078558	 -0.815102871	 -0.323230900
H	 -3.865418252	 0.105355243	 -0.688232800
C	 -3.767264003	 -0.961819479	 1.066064949
O	 -4.108904395	 -0.020875962	 1.763982923
C	 -3.427316899	 -2.294380664	 1.528817538
H	 -3.486927586	 -2.508321856	 2.581953145
C	 -3.031048858	 -3.229696600	 0.641035220
H	 -2.749192491	 -4.228827171	 0.937703912
N	 -2.959203565	 -2.971292436	 -0.699456306
H	 -2.601597965	 -3.658612760	 -1.341437373
C	 -3.248949830	 -1.740200959	 -1.257750329
O	 -3.149298232	 -1.508168224	 -2.447538463
