23
0  1  0  1  0  1  11  12 -3.84749 -3.73066 -4.39188 -4.50871 -4.41438 -4.46840 -0.66078 -0.66139 -0.66016 -4.09400 -2.01168  2.02110 -0.34207 -3.76136
N	 -0.013292465	 -1.346181523	 -0.166783779
C	 0.275515201	 -0.696420613	 -1.304025769
H	 0.197534921	 -1.274213459	 -2.216273175
C	 0.645141206	 0.645375837	 -1.355690649
H	 0.856452482	 1.109393140	 -2.308461646
C	 0.725235384	 1.363134781	 -0.166515373
H	 1.004776941	 2.407711835	 -0.166113138
C	 0.433199281	 0.704801040	 1.023666089
H	 0.469100442	 1.219233202	 1.972904896
C	 0.072912859	 -0.639238495	 0.970622606
H	 -0.159033453	 -1.177067133	 1.881544030
N	 -3.520491022	 0.857093427	 1.277441381
H	 -3.456176688	 1.755403384	 0.818841592
C	 -2.967512336	 0.782125840	 2.562399653
O	 -2.467343149	 1.767827025	 3.079513098
C	 -3.058191633	 -0.541879550	 3.149094033
H	 -2.668971098	 -0.697352714	 4.140433705
C	 -3.609885442	 -1.550020932	 2.442491882
H	 -3.682795049	 -2.556221572	 2.827149761
N	 -4.114354950	 -1.362159008	 1.185881201
H	 -4.464759714	 -2.136198669	 0.646891602
C	 -4.077733414	 -0.151129382	 0.520075338
O	 -4.497415661	 -0.000008938	 -0.611470002
