18
0  1  0  1  0  1   6  12 26.17025 27.58667 23.66755 22.25113 23.51809 22.77059 45.21139 45.20925 45.17361 27.10457 -30.31220 81.24382 -5.89456 -17.93249
C	 -1.102579010	 0.576250549	 -0.037733315
H	 -1.360847121	 1.014650274	 -0.990966288
H	 -1.413146928	 1.105168423	 0.851844042
C	 -0.437546104	 -0.575607674	 0.037733353
H	 -0.134771356	 -1.109022736	 -0.851844328
H	 -0.187007384	 -1.018472630	 0.990966114
C	 -3.436545536	 0.696534289	 1.206866386
H	 -3.438411893	 1.237475022	 2.143521410
C	 -3.434179689	 1.393221922	 0.000039609
H	 -3.435171821	 2.474823193	 -0.000000000
C	 -3.436260219	 0.696490813	 -1.206855719
H	 -3.438165876	 1.237462009	 -2.143502049
C	 -3.436549472	 -0.696531637	 -1.206866895
H	 -3.438419112	 -1.237476214	 -2.143525565
C	 -3.434192654	 -1.393222117	 -0.000038868
H	 -3.435195432	 -2.474821633	 -0.000001612
C	 -3.436269302	 -0.696493501	 1.206856388
H	 -3.438182265	 -1.237459610	 2.143497078
