18
0  1  0  1  0  1   6  12 14.04172 15.01619 12.12122 11.14675 11.99677 11.49346 28.64568 28.64152 28.61332 15.69408 -20.97669 54.45456 -4.27164 -13.51215
C	 -2.597820725	 0.665027482	 1.235524144
H	 -2.117335805	 1.173826837	 2.058814673
H	 -3.038711623	 1.278367757	 0.462877170
C	 -2.635559497	 -0.665027453	 1.170171232
H	 -2.186876220	 -1.278365822	 1.938319649
H	 -3.108313766	 -1.173829116	 0.342417654
C	 0.000756165	 0.696534289	 -1.206866386
H	 0.002622522	 1.237475022	 -2.143521410
C	 -0.001609682	 1.393221922	 -0.000039609
H	 -0.000617550	 2.474823193	 0.000000000
C	 0.000470848	 0.696490813	 1.206855719
H	 0.002376506	 1.237462009	 2.143502049
C	 0.000760101	 -0.696531637	 1.206866895
H	 0.002629742	 -1.237476214	 2.143525565
C	 -0.001596716	 -1.393222117	 0.000038868
H	 -0.000593938	 -2.474821633	 0.000001612
C	 0.000479932	 -0.696493501	 -1.206856388
H	 0.002392894	 -1.237459610	 -2.143497078
