18
0  1  0  1  0  1   6  12 -0.43614 -0.04508 -1.47049 -1.86155 -1.55425 -1.73582  6.52306  6.52295  6.51366 -0.03883 -4.01275 11.80558 -1.17378 -6.65788
C	 -0.235538470	 0.665027482	 -0.032998250
H	 -0.716023389	 1.173826837	 -0.856288780
H	 0.205352429	 1.278367757	 0.739648724
C	 -0.197799697	 -0.665027453	 0.032354661
H	 -0.646482974	 -1.278365822	 -0.735793755
H	 0.274954572	 -1.173829116	 0.860108239
C	 -3.436545536	 0.696534289	 1.206866386
H	 -3.438411893	 1.237475022	 2.143521410
C	 -3.434179689	 1.393221922	 0.000039609
H	 -3.435171821	 2.474823193	 -0.000000000
C	 -3.436260219	 0.696490813	 -1.206855719
H	 -3.438165876	 1.237462009	 -2.143502049
C	 -3.436549472	 -0.696531637	 -1.206866895
H	 -3.438419112	 -1.237476214	 -2.143525565
C	 -3.434192654	 -1.393222117	 -0.000038868
H	 -3.435195432	 -2.474821633	 -0.000001612
C	 -3.436269302	 -0.696493501	 1.206856388
H	 -3.438182265	 -1.237459610	 2.143497078
