18
0  1  0  1  0  1   6  12  5.10601  5.92651  2.83147  2.01096  2.71055  2.29709 18.16556 18.16462 18.14325  6.42489 -14.76432 37.12456 -3.70425 -12.23110
C	 0.655779175	 -0.116789989	 2.771428773
H	 1.047239951	 -1.123908817	 2.766960507
H	 1.370852959	 0.693273985	 2.766927185
C	 -0.655777344	 0.116792642	 2.771437664
H	 -1.370849291	 -0.693271876	 2.766941576
H	 -1.047240453	 1.123911540	 2.766979466
C	 0.835517177	 1.115166934	 0.021401313
H	 1.484323978	 1.980608580	 0.019534297
C	 1.383274965	 -0.166147213	 0.023765306
H	 2.457149016	 -0.295204681	 0.022771076
C	 0.547554655	 -1.281316320	 0.021685625
H	 0.972936101	 -2.275804531	 0.019778528
C	 -0.835523128	 -1.115161590	 0.021399074
H	 -1.484334187	 -1.980606395	 0.019530093
C	 -1.383283584	 0.166154134	 0.023757746
H	 -2.457156177	 0.295209058	 0.022757066
C	 -0.547565766	 1.281323471	 0.021680249
H	 -0.972942841	 2.275805478	 0.019768726
