18
0  1  0  1  0  1   6  12 -0.60786 -0.54125 -0.86989 -0.93650 -0.89612 -0.92134  1.18082  1.17772  1.17328 -0.59896  0.10624  1.09724 -0.14098 -1.66146
C	 -4.302394154	 -1.228179257	 0.037733315
H	 -4.552925399	 -0.785312649	 0.990966288
H	 -4.605166512	 -0.694760613	 -0.851844042
C	 -3.637372125	 -2.380043759	 -0.037733353
H	 -3.326808504	 -2.908961914	 0.851844328
H	 -3.379109182	 -2.818449133	 -0.990966114
C	 0.000756165	 0.696534289	 -1.206866386
H	 0.002622522	 1.237475022	 -2.143521410
C	 -0.001609682	 1.393221922	 -0.000039609
H	 -0.000617550	 2.474823193	 0.000000000
C	 0.000470848	 0.696490813	 1.206855719
H	 0.002376506	 1.237462009	 2.143502049
C	 0.000760101	 -0.696531637	 1.206866895
H	 0.002629742	 -1.237476214	 2.143525565
C	 -0.001596716	 -1.393222117	 0.000038868
H	 -0.000593938	 -2.474821633	 0.000001612
C	 0.000479932	 -0.696493501	 -1.206856388
H	 0.002392894	 -1.237459610	 -2.143497078
