18
0  1  0  1  0  1   6  12  5.35128  6.03090  3.93375  3.25413  3.82906  3.48844 15.84244 15.84027 15.82072  6.09623 -9.92050 28.14286 -2.19508 -9.93106
C	 -0.721840205	 0.576250742	 -0.037733315
H	 -0.980108316	 1.014650467	 -0.990966288
H	 -1.032408123	 1.105168616	 0.851844042
C	 -0.056807299	 -0.575607481	 0.037733353
H	 0.245967449	 -1.109022543	 -0.851844328
H	 0.193731421	 -1.018472437	 0.990966114
C	 -3.436545536	 0.696534289	 1.206866386
H	 -3.438411893	 1.237475022	 2.143521410
C	 -3.434179689	 1.393221922	 0.000039609
H	 -3.435171821	 2.474823193	 -0.000000000
C	 -3.436260219	 0.696490813	 -1.206855719
H	 -3.438165876	 1.237462009	 -2.143502049
C	 -3.436549472	 -0.696531637	 -1.206866895
H	 -3.438419112	 -1.237476214	 -2.143525565
C	 -3.434192654	 -1.393222117	 -0.000038868
H	 -3.435195432	 -2.474821633	 -0.000001612
C	 -3.436269302	 -0.696493501	 1.206856388
H	 -3.438182265	 -1.237459610	 2.143497078
