18
0  1  0  1  0  1   6  12 -0.23514  0.18719 -1.58485 -2.00718 -1.66603 -1.86631  7.57541  7.57745  7.57022  0.30853 -5.20497 14.43169 -1.51194 -7.40625
C	 0.655779819	 -0.116790210	 3.115008016
H	 1.047240595	 -1.123909038	 3.110539750
H	 1.370853603	 0.693273764	 3.110506428
C	 -0.655776700	 0.116792421	 3.115016907
H	 -1.370848647	 -0.693272097	 3.110520819
H	 -1.047239809	 1.123911319	 3.110558709
C	 0.835517177	 1.115166934	 0.021401313
H	 1.484323978	 1.980608580	 0.019534297
C	 1.383274965	 -0.166147213	 0.023765306
H	 2.457149016	 -0.295204681	 0.022771076
C	 0.547554655	 -1.281316320	 0.021685625
H	 0.972936101	 -2.275804531	 0.019778528
C	 -0.835523128	 -1.115161590	 0.021399074
H	 -1.484334187	 -1.980606395	 0.019530093
C	 -1.383283584	 0.166154134	 0.023757746
H	 -2.457156177	 0.295209058	 0.022757066
C	 -0.547565766	 1.281323471	 0.021680249
H	 -0.972942841	 2.275805478	 0.019768726
