18
0  1  0  1  0  1   6  12 -1.04250 -0.96699 -1.35406 -1.42957 -1.38621 -1.41268  0.86871  0.86749  0.86416 -1.07330 -0.01548  0.97206 -0.14329 -1.88659
C	 1.085400571	 0.575610067	 -0.037733315
H	 1.335931815	 1.018476674	 -0.990966288
H	 1.388172928	 1.109028710	 0.851844042
C	 0.420378542	 -0.576254436	 0.037733353
H	 0.109814921	 -1.105172590	 -0.851844328
H	 0.162115599	 -1.014659810	 0.990966114
C	 -3.436545536	 0.696534289	 1.206866386
H	 -3.438411893	 1.237475022	 2.143521410
C	 -3.434179689	 1.393221922	 0.000039609
H	 -3.435171821	 2.474823193	 -0.000000000
C	 -3.436260219	 0.696490813	 -1.206855719
H	 -3.438165876	 1.237462009	 -2.143502049
C	 -3.436549472	 -0.696531637	 -1.206866895
H	 -3.438419112	 -1.237476214	 -2.143525565
C	 -3.434192654	 -1.393222117	 -0.000038868
H	 -3.435195432	 -2.474821633	 -0.000001612
C	 -3.436269302	 -0.696493501	 1.206856388
H	 -3.438182265	 -1.237459610	 2.143497078
