18
0  1  0  1  0  1   6  12 -1.24905 -1.09398 -1.75034 -1.90541 -1.79835 -1.86199  2.04694  2.04719  2.04306 -1.21719 -0.71236  3.06407 -0.33400 -3.23489
C	 0.704662049	 0.575610260	 -0.037733315
H	 0.955193293	 1.018476867	 -0.990966288
H	 1.007434406	 1.109028903	 0.851844042
C	 0.039640020	 -0.576254243	 0.037733353
H	 -0.270923601	 -1.105172397	 -0.851844328
H	 -0.218622923	 -1.014659617	 0.990966114
C	 -3.436545536	 0.696534289	 1.206866386
H	 -3.438411893	 1.237475022	 2.143521410
C	 -3.434179689	 1.393221922	 0.000039609
H	 -3.435171821	 2.474823193	 -0.000000000
C	 -3.436260219	 0.696490813	 -1.206855719
H	 -3.438165876	 1.237462009	 -2.143502049
C	 -3.436549472	 -0.696531637	 -1.206866895
H	 -3.438419112	 -1.237476214	 -2.143525565
C	 -3.434192654	 -1.393222117	 -0.000038868
H	 -3.435195432	 -2.474821633	 -0.000001612
C	 -3.436269302	 -0.696493501	 1.206856388
H	 -3.438182265	 -1.237459610	 2.143497078
