18
0  1  0  1  0  1   6  12 -1.26894 -1.17202 -1.66291 -1.75983 -1.70062 -1.73622  1.15683  1.15838  1.15515 -1.27015 -0.14518  1.44496 -0.20082 -2.36911
C	 0.517433989	 0.665027482	 -0.032357382
H	 0.990182043	 1.173826837	 -0.860114794
H	 0.068747531	 1.278367757	 0.735788823
C	 0.479706094	 -0.665027453	 0.033001809
H	 0.920600498	 -1.278365822	 -0.739643515
H	 -0.000772398	 -1.173829116	 0.856295805
C	 -3.436545536	 0.696534289	 1.206866386
H	 -3.438411893	 1.237475022	 2.143521410
C	 -3.434179689	 1.393221922	 0.000039609
H	 -3.435171821	 2.474823193	 -0.000000000
C	 -3.436260219	 0.696490813	 -1.206855719
H	 -3.438165876	 1.237462009	 -2.143502049
C	 -3.436549472	 -0.696531637	 -1.206866895
H	 -3.438419112	 -1.237476214	 -2.143525565
C	 -3.434192654	 -1.393222117	 -0.000038868
H	 -3.435195432	 -2.474821633	 -0.000001612
C	 -3.436269302	 -0.696493501	 1.206856388
H	 -3.438182265	 -1.237459610	 2.143497078
