18
0  1  0  1  0  1   6  12 -1.43014 -1.29322 -1.92560 -2.06252 -1.97134 -2.02569  1.70145  1.70415  1.70027 -1.39528 -0.49844  2.46194 -0.30399 -3.05479
C	 0.338624706	 0.665027482	 -0.032357479
H	 0.811372760	 1.173826837	 -0.860114891
H	 -0.110061752	 1.278367757	 0.735788726
C	 0.300896811	 -0.665027453	 0.033001712
H	 0.741791215	 -1.278365822	 -0.739643612
H	 -0.179581681	 -1.173829116	 0.856295708
C	 -3.436545536	 0.696534289	 1.206866386
H	 -3.438411893	 1.237475022	 2.143521410
C	 -3.434179689	 1.393221922	 0.000039609
H	 -3.435171821	 2.474823193	 -0.000000000
C	 -3.436260219	 0.696490813	 -1.206855719
H	 -3.438165876	 1.237462009	 -2.143502049
C	 -3.436549472	 -0.696531637	 -1.206866895
H	 -3.438419112	 -1.237476214	 -2.143525565
C	 -3.434192654	 -1.393222117	 -0.000038868
H	 -3.435195432	 -2.474821633	 -0.000001612
C	 -3.436269302	 -0.696493501	 1.206856388
H	 -3.438182265	 -1.237459610	 2.143497078
