18
0  1  0  1  0  1   6  12 -0.51960 -0.47228 -0.73159 -0.77891 -0.75199 -0.76947  0.88587  0.88296  0.87842 -0.51910  0.23529  0.62755 -0.08712 -1.29481
C	 -4.130493761	 0.665027482	 -1.857326771
H	 -4.603241814	 1.173826837	 -1.029569360
H	 -3.681807302	 1.278367757	 -2.625472976
C	 -4.092765865	 -0.665027453	 -1.922685962
H	 -4.533660269	 -1.278365822	 -1.150040638
H	 -3.612287373	 -1.173829116	 -2.745979958
C	 0.000756165	 0.696534289	 -1.206866386
H	 0.002622522	 1.237475022	 -2.143521410
C	 -0.001609682	 1.393221922	 -0.000039609
H	 -0.000617550	 2.474823193	 0.000000000
C	 0.000470848	 0.696490813	 1.206855719
H	 0.002376506	 1.237462009	 2.143502049
C	 0.000760101	 -0.696531637	 1.206866895
H	 0.002629742	 -1.237476214	 2.143525565
C	 -0.001596716	 -1.393222117	 0.000038868
H	 -0.000593938	 -2.474821633	 0.000001612
C	 0.000479932	 -0.696493501	 -1.206856388
H	 0.002392894	 -1.237459610	 -2.143497078
