18
0  1  0  1  0  1   6  12 -0.50784 -0.46151 -0.71190 -0.75824 -0.73283 -0.74940  0.85131  0.84808  0.84363 -0.51523  0.21935  0.61038 -0.08967 -1.25529
C	 -3.826407631	 2.465935475	 0.037733315
H	 -3.568139521	 2.904335201	 0.990966288
H	 -3.515839714	 2.994853350	 -0.851844042
C	 -4.491440537	 1.314077252	 -0.037733353
H	 -4.794215285	 0.780662190	 0.851844328
H	 -4.741979257	 0.871212296	 -0.990966114
C	 0.000756165	 0.696534289	 -1.206866386
H	 0.002622522	 1.237475022	 -2.143521410
C	 -0.001609682	 1.393221922	 -0.000039609
H	 -0.000617550	 2.474823193	 0.000000000
C	 0.000470848	 0.696490813	 1.206855719
H	 0.002376506	 1.237462009	 2.143502049
C	 0.000760101	 -0.696531637	 1.206866895
H	 0.002629742	 -1.237476214	 2.143525565
C	 -0.001596716	 -1.393222117	 0.000038868
H	 -0.000593938	 -2.474821633	 0.000001612
C	 0.000479932	 -0.696493501	 -1.206856388
H	 0.002392894	 -1.237459610	 -2.143497078
