18
0  1  0  1  0  1   6  12 24.03986 25.55625 20.79617 19.27978 20.63054 19.83338 45.01883 45.01166 44.97314 25.60691 -33.85317 87.07689 -7.97933 -19.63749
C	 -0.950775159	 0.665027482	 -0.032997864
H	 -1.431260078	 1.173826837	 -0.856288394
H	 -0.509884260	 1.278367757	 0.739649110
C	 -0.913036386	 -0.665027453	 0.032355047
H	 -1.361719663	 -1.278365822	 -0.735793369
H	 -0.440282117	 -1.173829116	 0.860108625
C	 -3.436545536	 0.696534289	 1.206866386
H	 -3.438411893	 1.237475022	 2.143521410
C	 -3.434179689	 1.393221922	 0.000039609
H	 -3.435171821	 2.474823193	 -0.000000000
C	 -3.436260219	 0.696490813	 -1.206855719
H	 -3.438165876	 1.237462009	 -2.143502049
C	 -3.436549472	 -0.696531637	 -1.206866895
H	 -3.438419112	 -1.237476214	 -2.143525565
C	 -3.434192654	 -1.393222117	 -0.000038868
H	 -3.435195432	 -2.474821633	 -0.000001612
C	 -3.436269302	 -0.696493501	 1.206856388
H	 -3.438182265	 -1.237459610	 2.143497078
