18
0  1  0  1  0  1   6  12 -0.27266 -0.05947 -0.85099 -1.06419 -0.90038 -0.99785  4.09104  4.09034  4.08378 -0.03707 -1.55590  6.09517 -0.54021 -4.03613
C	 -3.345287845	 0.665027482	 1.579103467
H	 -2.864802925	 1.173826837	 2.402393996
H	 -3.786178743	 1.278367757	 0.806456493
C	 -3.383026617	 -0.665027453	 1.513750555
H	 -2.934343340	 -1.278365822	 2.281898972
H	 -3.855780886	 -1.173829116	 0.685996977
C	 0.000756165	 0.696534289	 -1.206866386
H	 0.002622522	 1.237475022	 -2.143521410
C	 -0.001609682	 1.393221922	 -0.000039609
H	 -0.000617550	 2.474823193	 0.000000000
C	 0.000470848	 0.696490813	 1.206855719
H	 0.002376506	 1.237462009	 2.143502049
C	 0.000760101	 -0.696531637	 1.206866895
H	 0.002629742	 -1.237476214	 2.143525565
C	 -0.001596716	 -1.393222117	 0.000038868
H	 -0.000593938	 -2.474821633	 0.000001612
C	 0.000479932	 -0.696493501	 -1.206856388
H	 0.002392894	 -1.237459610	 -2.143497078
