18
0  1  0  1  0  1   6  12 -0.61254 -0.46651 -1.05687 -1.20290 -1.09627 -1.16015  2.64340  2.64223  2.63694 -0.49125 -0.61959  3.47623 -0.33022 -3.01766
C	 -3.532154625	 0.665027482	 1.664998298
H	 -3.051669705	 1.173826837	 2.488288827
H	 -3.973045523	 1.278367757	 0.892351324
C	 -3.569893397	 -0.665027453	 1.599645386
H	 -3.121210120	 -1.278365822	 2.367793803
H	 -4.042647666	 -1.173829116	 0.771891808
C	 0.000756165	 0.696534289	 -1.206866386
H	 0.002622522	 1.237475022	 -2.143521410
C	 -0.001609682	 1.393221922	 -0.000039609
H	 -0.000617550	 2.474823193	 0.000000000
C	 0.000470848	 0.696490813	 1.206855719
H	 0.002376506	 1.237462009	 2.143502049
C	 0.000760101	 -0.696531637	 1.206866895
H	 0.002629742	 -1.237476214	 2.143525565
C	 -0.001596716	 -1.393222117	 0.000038868
H	 -0.000593938	 -2.474821633	 0.000001612
C	 0.000479932	 -0.696493501	 -1.206856388
H	 0.002392894	 -1.237459610	 -2.143497078
