18
0  1  0  1  0  1   6  12 -1.36639 -1.20799 -2.01797 -2.17637 -2.06619 -2.13137  2.32675  2.32628  2.32277 -1.28841 -0.68213  3.34397 -0.40466 -3.54559
C	 0.655780786	 -0.116790543	 3.630376882
H	 1.047241562	 -1.123909371	 3.625908616
H	 1.370854570	 0.693273431	 3.625875294
C	 -0.655775733	 0.116792088	 3.630385773
H	 -1.370847680	 -0.693272430	 3.625889685
H	 -1.047238842	 1.123910986	 3.625927575
C	 0.835517177	 1.115166934	 0.021401313
H	 1.484323978	 1.980608580	 0.019534297
C	 1.383274965	 -0.166147213	 0.023765306
H	 2.457149016	 -0.295204681	 0.022771076
C	 0.547554655	 -1.281316320	 0.021685625
H	 0.972936101	 -2.275804531	 0.019778528
C	 -0.835523128	 -1.115161590	 0.021399074
H	 -1.484334187	 -1.980606395	 0.019530093
C	 -1.383283584	 0.166154134	 0.023757746
H	 -2.457156177	 0.295209058	 0.022757066
C	 -0.547565766	 1.281323471	 0.021680249
H	 -0.972942841	 2.275805478	 0.019768726
