18
0  1  0  1  0  1   6  12  2.60196  3.05575  1.58183  1.12804  1.50299  1.28063 10.54127 10.53962 10.52637  3.33794 -6.29685 18.42769 -1.48872 -7.30418
C	 -2.971554285	 0.665027482	 1.407313806
H	 -2.491069365	 1.173826837	 2.230604335
H	 -3.412445183	 1.278367757	 0.634666832
C	 -3.009293057	 -0.665027453	 1.341960894
H	 -2.560609780	 -1.278365822	 2.110109311
H	 -3.482047326	 -1.173829116	 0.514207316
C	 0.000756165	 0.696534289	 -1.206866386
H	 0.002622522	 1.237475022	 -2.143521410
C	 -0.001609682	 1.393221922	 -0.000039609
H	 -0.000617550	 2.474823193	 0.000000000
C	 0.000470848	 0.696490813	 1.206855719
H	 0.002376506	 1.237462009	 2.143502049
C	 0.000760101	 -0.696531637	 1.206866895
H	 0.002629742	 -1.237476214	 2.143525565
C	 -0.001596716	 -1.393222117	 0.000038868
H	 -0.000593938	 -2.474821633	 0.000001612
C	 0.000479932	 -0.696493501	 -1.206856388
H	 0.002392894	 -1.237459610	 -2.143497078
