18
0  1  0  1  0  1   6  12 15.07874 16.07668 13.06635 12.06841 12.94074 12.42543 29.33185 29.32815 29.30210 16.06414 -22.87881 59.14572 -6.38388 -13.81889
C	 -2.314273482	 1.778776828	 0.037733315
H	 -2.056005372	 2.217176554	 0.990966288
H	 -2.003705565	 2.307694703	 -0.851844042
C	 -2.979306388	 0.626918605	 -0.037733353
H	 -3.282081136	 0.093503543	 0.851844328
H	 -3.229845108	 0.184053649	 -0.990966114
C	 0.000756165	 0.696534289	 -1.206866386
H	 0.002622522	 1.237475022	 -2.143521410
C	 -0.001609682	 1.393221922	 -0.000039609
H	 -0.000617550	 2.474823193	 0.000000000
C	 0.000470848	 0.696490813	 1.206855719
H	 0.002376506	 1.237462009	 2.143502049
C	 0.000760101	 -0.696531637	 1.206866895
H	 0.002629742	 -1.237476214	 2.143525565
C	 -0.001596716	 -1.393222117	 0.000038868
H	 -0.000593938	 -2.474821633	 0.000001612
C	 0.000479932	 -0.696493501	 -1.206856388
H	 0.002392894	 -1.237459610	 -2.143497078
