18
0  1  0  1  0  1   6  12  5.10128  5.87300  3.30971  2.53799  3.19066  2.80447 17.15405 17.14944 17.12842  6.14846 -12.04915 32.53807 -3.00204 -11.33842
C	 -0.555421713	 0.665027482	 -0.032357961
H	 -0.082673659	 1.173826837	 -0.860115373
H	 -1.004108171	 1.278367757	 0.735788244
C	 -0.593149608	 -0.665027453	 0.033001230
H	 -0.152255204	 -1.278365822	 -0.739644094
H	 -1.073628100	 -1.173829116	 0.856295226
C	 -3.436545536	 0.696534289	 1.206866386
H	 -3.438411893	 1.237475022	 2.143521410
C	 -3.434179689	 1.393221922	 0.000039609
H	 -3.435171821	 2.474823193	 -0.000000000
C	 -3.436260219	 0.696490813	 -1.206855719
H	 -3.438165876	 1.237462009	 -2.143502049
C	 -3.436549472	 -0.696531637	 -1.206866895
H	 -3.438419112	 -1.237476214	 -2.143525565
C	 -3.434192654	 -1.393222117	 -0.000038868
H	 -3.435195432	 -2.474821633	 -0.000001612
C	 -3.436269302	 -0.696493501	 1.206856388
H	 -3.438182265	 -1.237459610	 2.143497078
