18
0  1  0  1  0  1   6  12 -0.59169 -0.45168 -1.03476 -1.17476 -1.07544 -1.13519  2.57520  2.57275  2.56724 -0.49029 -0.65848  3.50692 -0.38118 -2.95754
C	 -3.259357325	 2.208250982	 0.037733315
H	 -3.001089215	 2.646650708	 0.990966288
H	 -2.948789408	 2.737168857	 -0.851844042
C	 -3.924390231	 1.056392759	 -0.037733353
H	 -4.227164979	 0.522977697	 0.851844328
H	 -4.174928951	 0.613527803	 -0.990966114
C	 0.000756165	 0.696534289	 -1.206866386
H	 0.002622522	 1.237475022	 -2.143521410
C	 -0.001609682	 1.393221922	 -0.000039609
H	 -0.000617550	 2.474823193	 0.000000000
C	 0.000470848	 0.696490813	 1.206855719
H	 0.002376506	 1.237462009	 2.143502049
C	 0.000760101	 -0.696531637	 1.206866895
H	 0.002629742	 -1.237476214	 2.143525565
C	 -0.001596716	 -1.393222117	 0.000038868
H	 -0.000593938	 -2.474821633	 0.000001612
C	 0.000479932	 -0.696493501	 -1.206856388
H	 0.002392894	 -1.237459610	 -2.143497078
