18
0  1  0  1  0  1   6  12 -0.66328 -0.56673 -1.00218 -1.09873 -1.03484 -1.07379  1.70900  1.70618  1.70140 -0.62156 -0.14738  1.96560 -0.22878 -2.21100
C	 -3.448374094	 2.294145813	 0.037733315
H	 -3.190105984	 2.732545539	 0.990966288
H	 -3.137806177	 2.823063688	 -0.851844042
C	 -4.113407000	 1.142287590	 -0.037733353
H	 -4.416181748	 0.608872528	 0.851844328
H	 -4.363945720	 0.699422634	 -0.990966114
C	 0.000756165	 0.696534289	 -1.206866386
H	 0.002622522	 1.237475022	 -2.143521410
C	 -0.001609682	 1.393221922	 -0.000039609
H	 -0.000617550	 2.474823193	 0.000000000
C	 0.000470848	 0.696490813	 1.206855719
H	 0.002376506	 1.237462009	 2.143502049
C	 0.000760101	 -0.696531637	 1.206866895
H	 0.002629742	 -1.237476214	 2.143525565
C	 -0.001596716	 -1.393222117	 0.000038868
H	 -0.000593938	 -2.474821633	 0.000001612
C	 0.000479932	 -0.696493501	 -1.206856388
H	 0.002392894	 -1.237459610	 -2.143497078
