18
0  1  0  1  0  1   6  12 -1.47054 -1.27567 -2.09731 -2.29218 -2.15337 -2.23569  2.59711  2.59993  2.59500 -1.36958 -1.12357  4.17478 -0.47061 -3.95018
C	 0.159815422	 0.665027482	 -0.032357575
H	 0.632563476	 1.173826837	 -0.860114987
H	 -0.288871036	 1.278367757	 0.735788630
C	 0.122087527	 -0.665027453	 0.033001616
H	 0.562981931	 -1.278365822	 -0.739643708
H	 -0.358390965	 -1.173829116	 0.856295612
C	 -3.436545536	 0.696534289	 1.206866386
H	 -3.438411893	 1.237475022	 2.143521410
C	 -3.434179689	 1.393221922	 0.000039609
H	 -3.435171821	 2.474823193	 -0.000000000
C	 -3.436260219	 0.696490813	 -1.206855719
H	 -3.438165876	 1.237462009	 -2.143502049
C	 -3.436549472	 -0.696531637	 -1.206866895
H	 -3.438419112	 -1.237476214	 -2.143525565
C	 -3.434192654	 -1.393222117	 -0.000038868
H	 -3.435195432	 -2.474821633	 -0.000001612
C	 -3.436269302	 -0.696493501	 1.206856388
H	 -3.438182265	 -1.237459610	 2.143497078
