18
0  1  0  1  0  1   6  12 -0.23166 -0.02796 -0.81776 -1.02146 -0.86846 -0.95974  4.01904  4.01690  4.01019 -0.02815 -1.63321  6.22813 -0.64739 -3.97567
C	 -3.735347303	 -0.970494764	 0.037733315
H	 -3.985878548	 -0.527628156	 0.990966288
H	 -4.038119661	 -0.437076120	 -0.851844042
C	 -3.070325274	 -2.122359266	 -0.037733353
H	 -2.759761653	 -2.651277421	 0.851844328
H	 -2.812062331	 -2.560764640	 -0.990966114
C	 0.000756165	 0.696534289	 -1.206866386
H	 0.002622522	 1.237475022	 -2.143521410
C	 -0.001609682	 1.393221922	 -0.000039609
H	 -0.000617550	 2.474823193	 0.000000000
C	 0.000470848	 0.696490813	 1.206855719
H	 0.002376506	 1.237462009	 2.143502049
C	 0.000760101	 -0.696531637	 1.206866895
H	 0.002629742	 -1.237476214	 2.143525565
C	 -0.001596716	 -1.393222117	 0.000038868
H	 -0.000593938	 -2.474821633	 0.000001612
C	 0.000479932	 -0.696493501	 -1.206856388
H	 0.002392894	 -1.237459610	 -2.143497078
