18
0  1  0  1  0  1   6  12 -0.66325 -0.56673 -1.00216 -1.09869 -1.03491 -1.07379  1.70903  1.70620  1.70143 -0.62157 -0.14740  1.96565 -0.22878 -2.21104
C	 -4.113378537	 -1.142284426	 0.037733315
H	 -4.363909782	 -0.699417818	 0.990966288
H	 -4.416150895	 -0.608865782	 -0.851844042
C	 -3.448356508	 -2.294148928	 -0.037733353
H	 -3.137792887	 -2.823067083	 0.851844328
H	 -3.190093565	 -2.732554302	 -0.990966114
C	 0.000756165	 0.696534289	 -1.206866386
H	 0.002622522	 1.237475022	 -2.143521410
C	 -0.001609682	 1.393221922	 -0.000039609
H	 -0.000617550	 2.474823193	 0.000000000
C	 0.000470848	 0.696490813	 1.206855719
H	 0.002376506	 1.237462009	 2.143502049
C	 0.000760101	 -0.696531637	 1.206866895
H	 0.002629742	 -1.237476214	 2.143525565
C	 -0.001596716	 -1.393222117	 0.000038868
H	 -0.000593938	 -2.474821633	 0.000001612
C	 0.000479932	 -0.696493501	 -1.206856388
H	 0.002392894	 -1.237459610	 -2.143497078
