18
0  1  0  1  0  1   6  12 -0.59168 -0.45168 -1.03478 -1.17477 -1.07543 -1.13519  2.57525  2.57280  2.56728 -0.49029 -0.65850  3.50699 -0.38119 -2.95758
C	 -3.924362920	 -1.056389595	 0.037733315
H	 -4.174894165	 -0.613522987	 0.990966288
H	 -4.227135278	 -0.522970951	 -0.851844042
C	 -3.259340891	 -2.208254097	 -0.037733353
H	 -2.948777270	 -2.737172252	 0.851844328
H	 -3.001077948	 -2.646659471	 -0.990966114
C	 0.000756165	 0.696534289	 -1.206866386
H	 0.002622522	 1.237475022	 -2.143521410
C	 -0.001609682	 1.393221922	 -0.000039609
H	 -0.000617550	 2.474823193	 0.000000000
C	 0.000470848	 0.696490813	 1.206855719
H	 0.002376506	 1.237462009	 2.143502049
C	 0.000760101	 -0.696531637	 1.206866895
H	 0.002629742	 -1.237476214	 2.143525565
C	 -0.001596716	 -1.393222117	 0.000038868
H	 -0.000593938	 -2.474821633	 0.000001612
C	 0.000479932	 -0.696493501	 -1.206856388
H	 0.002392894	 -1.237459610	 -2.143497078
