18
0  1  0  1  0  1   6  12 -0.43620 -0.04509 -1.47048 -1.86158 -1.55424 -1.73584  6.52302  6.52290  6.51361 -0.03885 -4.01271 11.80548 -1.17377 -6.65785
C	 -0.197803145	 0.665027482	 -0.032357768
H	 0.274944909	 1.173826837	 -0.860115180
H	 -0.646489603	 1.278367757	 0.735788437
C	 -0.235531040	 -0.665027453	 0.033001423
H	 0.205363364	 -1.278365822	 -0.739643901
H	 -0.716009532	 -1.173829116	 0.856295419
C	 -3.436545536	 0.696534289	 1.206866386
H	 -3.438411893	 1.237475022	 2.143521410
C	 -3.434179689	 1.393221922	 0.000039609
H	 -3.435171821	 2.474823193	 -0.000000000
C	 -3.436260219	 0.696490813	 -1.206855719
H	 -3.438165876	 1.237462009	 -2.143502049
C	 -3.436549472	 -0.696531637	 -1.206866895
H	 -3.438419112	 -1.237476214	 -2.143525565
C	 -3.434192654	 -1.393222117	 -0.000038868
H	 -3.435195432	 -2.474821633	 -0.000001612
C	 -3.436269302	 -0.696493501	 1.206856388
H	 -3.438182265	 -1.237459610	 2.143497078
