18
0  1  0  1  0  1   6  12 -1.26870 -1.17202 -1.66292 -1.75960 -1.70061 -1.73608  1.15683  1.15839  1.15515 -1.27016 -0.14519  1.44497 -0.20082 -2.36912
C	 0.479698218	 0.665027482	 -0.032998636
H	 -0.000786701	 1.173826837	 -0.856289166
H	 0.920589117	 1.278367757	 0.739648338
C	 0.517436991	 -0.665027453	 0.032354275
H	 0.068753714	 -1.278365822	 -0.735794141
H	 0.990191260	 -1.173829116	 0.860107853
C	 -3.436545536	 0.696534289	 1.206866386
H	 -3.438411893	 1.237475022	 2.143521410
C	 -3.434179689	 1.393221922	 0.000039609
H	 -3.435171821	 2.474823193	 -0.000000000
C	 -3.436260219	 0.696490813	 -1.206855719
H	 -3.438165876	 1.237462009	 -2.143502049
C	 -3.436549472	 -0.696531637	 -1.206866895
H	 -3.438419112	 -1.237476214	 -2.143525565
C	 -3.434192654	 -1.393222117	 -0.000038868
H	 -3.435195432	 -2.474821633	 -0.000001612
C	 -3.436269302	 -0.696493501	 1.206856388
H	 -3.438182265	 -1.237459610	 2.143497078
