18
0  1  0  1  0  1   6  12 -0.51971 -0.47227 -0.73156 -0.77900 -0.75201 -0.76953  0.88588  0.88297  0.87843 -0.51910  0.23528  0.62756 -0.08712 -1.29483
C	 -4.092754965	 0.665027482	 1.922682791
H	 -3.612270045	 1.173826837	 2.745973320
H	 -4.533645863	 1.278367757	 1.150035817
C	 -4.130493737	 -0.665027453	 1.857329879
H	 -3.681810460	 -1.278365822	 2.625478296
H	 -4.603248006	 -1.173829116	 1.029576301
C	 0.000756165	 0.696534289	 -1.206866386
H	 0.002622522	 1.237475022	 -2.143521410
C	 -0.001609682	 1.393221922	 -0.000039609
H	 -0.000617550	 2.474823193	 0.000000000
C	 0.000470848	 0.696490813	 1.206855719
H	 0.002376506	 1.237462009	 2.143502049
C	 0.000760101	 -0.696531637	 1.206866895
H	 0.002629742	 -1.237476214	 2.143525565
C	 -0.001596716	 -1.393222117	 0.000038868
H	 -0.000593938	 -2.474821633	 0.000001612
C	 0.000479932	 -0.696493501	 -1.206856388
H	 0.002392894	 -1.237459610	 -2.143497078
