18
0  1  0  1  0  1   6  12  5.35106  6.03059  3.93342  3.25390  3.82875  3.48817 15.84205 15.83989 15.82034  6.09593 -9.92027 28.14218 -2.19501 -9.93097
C	 -0.056814995	 0.575610646	 -0.037733315
H	 0.193716249	 1.018477253	 -0.990966288
H	 0.245957362	 1.109029289	 0.851844042
C	 -0.721837024	 -0.576253857	 0.037733353
H	 -1.032400645	 -1.105172011	 -0.851844328
H	 -0.980099967	 -1.014659231	 0.990966114
C	 -3.436545536	 0.696534289	 1.206866386
H	 -3.438411893	 1.237475022	 2.143521410
C	 -3.434179689	 1.393221922	 0.000039609
H	 -3.435171821	 2.474823193	 -0.000000000
C	 -3.436260219	 0.696490813	 -1.206855719
H	 -3.438165876	 1.237462009	 -2.143502049
C	 -3.436549472	 -0.696531637	 -1.206866895
H	 -3.438419112	 -1.237476214	 -2.143525565
C	 -3.434192654	 -1.393222117	 -0.000038868
H	 -3.435195432	 -2.474821633	 -0.000001612
C	 -3.436269302	 -0.696493501	 1.206856388
H	 -3.438182265	 -1.237459610	 2.143497078
