18
0  1  0  1  0  1   6  12 -0.29023  0.03414 -1.11930 -1.44367 -1.19136 -1.34044  5.54001  5.53950  5.53189 -0.03791 -2.98957  9.41899 -0.84083 -5.62650
C	 0.323923527	 0.575610453	 -0.037733315
H	 0.574454771	 1.018477060	 -0.990966288
H	 0.626695884	 1.109029096	 0.851844042
C	 -0.341098502	 -0.576254050	 0.037733353
H	 -0.651662123	 -1.105172204	 -0.851844328
H	 -0.599361445	 -1.014659424	 0.990966114
C	 -3.436545536	 0.696534289	 1.206866386
H	 -3.438411893	 1.237475022	 2.143521410
C	 -3.434179689	 1.393221922	 0.000039609
H	 -3.435171821	 2.474823193	 -0.000000000
C	 -3.436260219	 0.696490813	 -1.206855719
H	 -3.438165876	 1.237462009	 -2.143502049
C	 -3.436549472	 -0.696531637	 -1.206866895
H	 -3.438419112	 -1.237476214	 -2.143525565
C	 -3.434192654	 -1.393222117	 -0.000038868
H	 -3.435195432	 -2.474821633	 -0.000001612
C	 -3.436269302	 -0.696493501	 1.206856388
H	 -3.438182265	 -1.237459610	 2.143497078
