18
0  1  0  1  0  1   6  12 -1.19738 -1.08960 -1.59146 -1.69924 -1.63071 -1.67185  1.30337  1.30302  1.29941 -1.20882 -0.25807  1.73078 -0.21600 -2.46553
C	 0.895031310	 0.575610164	 -0.037733315
H	 1.145562554	 1.018476771	 -0.990966288
H	 1.197803667	 1.109028807	 0.851844042
C	 0.230009281	 -0.576254339	 0.037733353
H	 -0.080554340	 -1.105172493	 -0.851844328
H	 -0.028253662	 -1.014659713	 0.990966114
C	 -3.436545536	 0.696534289	 1.206866386
H	 -3.438411893	 1.237475022	 2.143521410
C	 -3.434179689	 1.393221922	 0.000039609
H	 -3.435171821	 2.474823193	 -0.000000000
C	 -3.436260219	 0.696490813	 -1.206855719
H	 -3.438165876	 1.237462009	 -2.143502049
C	 -3.436549472	 -0.696531637	 -1.206866895
H	 -3.438419112	 -1.237476214	 -2.143525565
C	 -3.434192654	 -1.393222117	 -0.000038868
H	 -3.435195432	 -2.474821633	 -0.000001612
C	 -3.436269302	 -0.696493501	 1.206856388
H	 -3.438182265	 -1.237459610	 2.143497078
