18
0  1  0  1  0  1   6  12 -0.60785 -0.54124 -0.86987 -0.93649 -0.89610 -0.92132  1.18080  1.17770  1.17325 -0.59896  0.10624  1.09721 -0.14098 -1.66143
C	 -3.637390863	 2.380040644	 0.037733315
H	 -3.379122753	 2.818440370	 0.990966288
H	 -3.326822946	 2.908958519	 -0.851844042
C	 -4.302423769	 1.228182421	 -0.037733353
H	 -4.605198517	 0.694767359	 0.851844328
H	 -4.552962489	 0.785317465	 -0.990966114
C	 0.000756165	 0.696534289	 -1.206866386
H	 0.002622522	 1.237475022	 -2.143521410
C	 -0.001609682	 1.393221922	 -0.000039609
H	 -0.000617550	 2.474823193	 0.000000000
C	 0.000470848	 0.696490813	 1.206855719
H	 0.002376506	 1.237462009	 2.143502049
C	 0.000760101	 -0.696531637	 1.206866895
H	 0.002629742	 -1.237476214	 2.143525565
C	 -0.001596716	 -1.393222117	 0.000038868
H	 -0.000593938	 -2.474821633	 0.000001612
C	 0.000479932	 -0.696493501	 -1.206856388
H	 0.002392894	 -1.237459610	 -2.143497078
