18
0  1  0  1  0  1   6  12 14.04129 15.01580 12.12085 11.14634 11.99642 11.49308 28.64516 28.64099 28.61280 15.69369 -20.97631 54.45361 -4.27159 -13.51202
C	 -2.635557528	 0.665027482	 -1.170168126
H	 -3.108305581	 1.173826837	 -0.342410715
H	 -2.186871069	 1.278367757	 -1.938314331
C	 -2.597829632	 -0.665027453	 -1.235527317
H	 -3.038724036	 -1.278365822	 -0.462881993
H	 -2.117351140	 -1.173829116	 -2.058821313
C	 0.000756165	 0.696534289	 -1.206866386
H	 0.002622522	 1.237475022	 -2.143521410
C	 -0.001609682	 1.393221922	 -0.000039609
H	 -0.000617550	 2.474823193	 0.000000000
C	 0.000470848	 0.696490813	 1.206855719
H	 0.002376506	 1.237462009	 2.143502049
C	 0.000760101	 -0.696531637	 1.206866895
H	 0.002629742	 -1.237476214	 2.143525565
C	 -0.001596716	 -1.393222117	 0.000038868
H	 -0.000593938	 -2.474821633	 0.000001612
C	 0.000479932	 -0.696493501	 -1.206856388
H	 0.002392894	 -1.237459610	 -2.143497078
