18
0  1  0  1  0  1   6  12 -1.07292 -0.76824 -2.12336 -2.42803 -2.19070 -2.33008  4.99048  4.99233  4.98717 -0.76270 -2.92509  8.91597 -0.96878 -5.78480
C	 0.655780142	 -0.116790321	 3.286797638
H	 1.047240918	 -1.123909149	 3.282329372
H	 1.370853926	 0.693273653	 3.282296050
C	 -0.655776377	 0.116792310	 3.286806529
H	 -1.370848324	 -0.693272208	 3.282310441
H	 -1.047239486	 1.123911208	 3.282348331
C	 0.835517177	 1.115166934	 0.021401313
H	 1.484323978	 1.980608580	 0.019534297
C	 1.383274965	 -0.166147213	 0.023765306
H	 2.457149016	 -0.295204681	 0.022771076
C	 0.547554655	 -1.281316320	 0.021685625
H	 0.972936101	 -2.275804531	 0.019778528
C	 -0.835523128	 -1.115161590	 0.021399074
H	 -1.484334187	 -1.980606395	 0.019530093
C	 -1.383283584	 0.166154134	 0.023757746
H	 -2.457156177	 0.295209058	 0.022757066
C	 -0.547565766	 1.281323471	 0.021680249
H	 -0.972942841	 2.275805478	 0.019768726
