18
0  1  0  1  0  1   6  12  2.60181  3.05563  1.58175  1.12793  1.50289  1.28053 10.54108 10.53943 10.52618  3.33782 -6.29672 18.42735 -1.48870 -7.30411
C	 -3.009291586	 0.665027482	 -1.341957787
H	 -3.482039639	 1.173826837	 -0.514200376
H	 -2.560605127	 1.278367757	 -2.110103992
C	 -2.971563690	 -0.665027453	 -1.407316978
H	 -3.412458094	 -1.278365822	 -0.634671654
H	 -2.491085198	 -1.173829116	 -2.230610974
C	 0.000756165	 0.696534289	 -1.206866386
H	 0.002622522	 1.237475022	 -2.143521410
C	 -0.001609682	 1.393221922	 -0.000039609
H	 -0.000617550	 2.474823193	 0.000000000
C	 0.000470848	 0.696490813	 1.206855719
H	 0.002376506	 1.237462009	 2.143502049
C	 0.000760101	 -0.696531637	 1.206866895
H	 0.002629742	 -1.237476214	 2.143525565
C	 -0.001596716	 -1.393222117	 0.000038868
H	 -0.000593938	 -2.474821633	 0.000001612
C	 0.000479932	 -0.696493501	 -1.206856388
H	 0.002392894	 -1.237459610	 -2.143497078
