18
0  1  0  1  0  1   6  12 -2.71678 -2.43832 -3.00025 -3.27871 -3.05977 -3.18646  2.50814  2.50753  2.50727 -2.63007 -2.97830  6.75158 -0.74152 -5.66183
C	 0.043372163	 0.050788967	 0.664611838
H	 -0.719223072	 0.586234309	 1.212405017
H	 0.843190410	 -0.394656506	 1.239582235
C	 0.008449720	 -0.051417031	 -0.664495022
H	 -0.783019253	 0.399999419	 -1.246111649
H	 0.777015651	 -0.583381350	 -1.207176555
N	 -3.393212708	 0.941213962	 0.000000000
H	 -3.411864114	 1.951545107	 0.021856721
C	 -3.435734545	 0.352010949	 -1.271423199
O	 -3.495695417	 1.045640340	 -2.272593653
C	 -3.400641084	 -1.098893668	 -1.234367811
H	 -3.448475378	 -1.641809986	 -2.162326776
C	 -3.301809331	 -1.734730033	 -0.049549102
H	 -3.264189569	 -2.810965612	 0.029817347
N	 -3.236516350	 -1.053209607	 1.135158318
H	 -3.133029176	 -1.537925555	 2.010767268
C	 -3.258128774	 0.327147992	 1.226820790
O	 -3.172965975	 0.924217951	 2.282422655
