18
0  1  0  1  0  1   6  12 -2.03109 -1.88851 -2.29921 -2.44179 -2.32581 -2.39328  0.83426  0.83527  0.83427 -1.90401 -1.73395  3.33718 -0.39846 -3.10878
C	 -3.617606129	 -1.656829333	 -0.664608567
H	 -3.700017781	 -0.728679816	 -1.212401746
H	 -3.631748157	 -2.572214990	 -1.239578964
C	 -3.511631917	 -1.677688609	 0.664498293
H	 -3.506835544	 -0.766548147	 1.246114920
H	 -3.435220269	 -2.609268390	 1.207179826
N	 0.058143213	 0.941213962	 0.000000000
H	 0.076794618	 1.951545107	 -0.021856721
C	 0.100665050	 0.352010949	 1.271423199
O	 0.160625922	 1.045640340	 2.272593653
C	 0.065571589	 -1.098893668	 1.234367811
H	 0.113405883	 -1.641809986	 2.162326776
C	 -0.033260164	 -1.734730033	 0.049549102
H	 -0.070879926	 -2.810965612	 -0.029817347
N	 -0.098553145	 -1.053209607	 -1.135158318
H	 -0.202040319	 -1.537925555	 -2.010767268
C	 -0.076940721	 0.327147992	 -1.226820790
O	 -0.162103520	 0.924217951	 -2.282422655
