18
0  1  0  1  0  1   6  12 -2.17693 -1.94921 -2.50973 -2.73746 -2.55664 -2.66315  2.14591  2.14366  2.13897 -2.18090 -2.67643  5.78871 -0.54496 -4.74822
C	 0.568293564	 0.035514516	 0.555542095
H	 0.502098362	 0.880521402	 1.226296992
H	 1.262758900	 -0.750161703	 0.818510973
C	 -0.166708193	 -0.035537253	 -0.554824850
H	 -0.855649179	 0.751135347	 -0.828657618
H	 -0.091971818	 -0.880514833	 -1.224608574
N	 -3.393212708	 0.941213962	 0.000000000
H	 -3.411864114	 1.951545107	 0.021856721
C	 -3.435734545	 0.352010949	 -1.271423199
O	 -3.495695417	 1.045640340	 -2.272593653
C	 -3.400641084	 -1.098893668	 -1.234367811
H	 -3.448475378	 -1.641809986	 -2.162326776
C	 -3.301809331	 -1.734730033	 -0.049549102
H	 -3.264189569	 -2.810965612	 0.029817347
N	 -3.236516350	 -1.053209607	 1.135158318
H	 -3.133029176	 -1.537925555	 2.010767268
C	 -3.258128774	 0.327147992	 1.226820790
O	 -3.172965975	 0.924217951	 2.282422655
