18
0  1  0  1  0  1   6  12 -2.28934 -2.12756 -2.48306 -2.64483 -2.51777 -2.59272  0.51318  0.51320  0.50966 -2.20041 -1.87329  3.30795 -0.44174 -3.19334
C	 -3.928209923	 0.035489032	 1.111995833
H	 -3.862014722	 0.880495918	 0.441240937
H	 -4.622675259	 -0.750187187	 0.849026955
C	 -3.193208166	 -0.035562737	 2.222362778
H	 -2.504267180	 0.751109863	 2.496195546
H	 -3.267944542	 -0.880540317	 2.892146503
N	 0.058143213	 0.941213962	 0.000000000
H	 0.076794618	 1.951545107	 -0.021856721
C	 0.100665050	 0.352010949	 1.271423199
O	 0.160625922	 1.045640340	 2.272593653
C	 0.065571589	 -1.098893668	 1.234367811
H	 0.113405883	 -1.641809986	 2.162326776
C	 -0.033260164	 -1.734730033	 0.049549102
H	 -0.070879926	 -2.810965612	 -0.029817347
N	 -0.098553145	 -1.053209607	 -1.135158318
H	 -0.202040319	 -1.537925555	 -2.010767268
C	 -0.076940721	 0.327147992	 -1.226820790
O	 -0.162103520	 0.924217951	 -2.282422655
