18
0  1  0  1  0  1   6  12 -2.39204 -2.24195 -2.46910 -2.61919 -2.50034 -2.56935  0.11212  0.11351  0.11279 -2.27821 -2.04608  3.14926 -0.43038 -2.95102
C	 -3.403594261	 0.035489032	 -2.263131639
H	 -2.789605881	 0.880495918	 -2.541182361
H	 -3.523089200	 -0.750187187	 -2.996040701
C	 -3.997699364	 -0.035562737	 -1.071417973
H	 -3.890375005	 0.751109863	 -0.337861193
H	 -4.615117273	 -0.880540317	 -0.801249710
N	 0.058143213	 0.941213962	 0.000000000
H	 0.076794618	 1.951545107	 -0.021856721
C	 0.100665050	 0.352010949	 1.271423199
O	 0.160625922	 1.045640340	 2.272593653
C	 0.065571589	 -1.098893668	 1.234367811
H	 0.113405883	 -1.641809986	 2.162326776
C	 -0.033260164	 -1.734730033	 0.049549102
H	 -0.070879926	 -2.810965612	 -0.029817347
N	 -0.098553145	 -1.053209607	 -1.135158318
H	 -0.202040319	 -1.537925555	 -2.010767268
C	 -0.076940721	 0.327147992	 -1.226820790
O	 -0.162103520	 0.924217951	 -2.282422655
