18
0  1  0  1  0  1   6  12 30.00575 31.55603 28.81432 27.26404 28.68375 27.84196 48.29749 48.29542 48.24559 28.44295 -35.38640 91.88481 -7.93489 -20.12058
C	 -0.362329450	 0.035641939	 0.555557998
H	 -0.428524652	 0.880648825	 1.226312895
H	 0.332135886	 -0.750034280	 0.818526876
C	 -1.097331207	 -0.035409830	 -0.554808947
H	 -1.786272193	 0.751262770	 -0.828641715
H	 -1.022594832	 -0.880387410	 -1.224592671
N	 -3.393212708	 0.941213962	 0.000000000
H	 -3.411864114	 1.951545107	 0.021856721
C	 -3.435734545	 0.352010949	 -1.271423199
O	 -3.495695417	 1.045640340	 -2.272593653
C	 -3.400641084	 -1.098893668	 -1.234367811
H	 -3.448475378	 -1.641809986	 -2.162326776
C	 -3.301809331	 -1.734730033	 -0.049549102
H	 -3.264189569	 -2.810965612	 0.029817347
N	 -3.236516350	 -1.053209607	 1.135158318
H	 -3.133029176	 -1.537925555	 2.010767268
C	 -3.258128774	 0.327147992	 1.226820790
O	 -3.172965975	 0.924217951	 2.282422655
