18
0  1  0  1  0  1   6  12 -1.96156 -1.54999 -2.67452 -3.08609 -2.73548 -2.94079  5.47637  5.47564  5.46944 -1.57321 -6.79651 14.19342 -1.16044 -7.80968
C	 -0.265670900	 0.010756197	 0.664615108
H	 -0.183259249	 0.938905714	 1.212408287
H	 -0.251528872	 -0.904629460	 1.239585505
C	 -0.371645112	 -0.010103080	 -0.664491752
H	 -0.376441485	 0.901037382	 -1.246108379
H	 -0.448056761	 -0.941682860	 -1.207173285
N	 -3.393212708	 0.941213962	 0.000000000
H	 -3.411864114	 1.951545107	 0.021856721
C	 -3.435734545	 0.352010949	 -1.271423199
O	 -3.495695417	 1.045640340	 -2.272593653
C	 -3.400641084	 -1.098893668	 -1.234367811
H	 -3.448475378	 -1.641809986	 -2.162326776
C	 -3.301809331	 -1.734730033	 -0.049549102
H	 -3.264189569	 -2.810965612	 0.029817347
N	 -3.236516350	 -1.053209607	 1.135158318
H	 -3.133029176	 -1.537925555	 2.010767268
C	 -3.258128774	 0.327147992	 1.226820790
O	 -3.172965975	 0.924217951	 2.282422655
