18
0  1  0  1  0  1   6  12 23.85895 25.54554 21.78667 20.10008 21.64191 20.72899 45.33249 45.32895 45.27788 24.34979 -40.83817 94.10583 -7.16443 -21.75344
C	 -0.936107007	 0.010857760	 0.664628191
H	 -0.853695356	 0.939007277	 1.212421370
H	 -0.921964979	 -0.904527897	 1.239598588
C	 -1.042081219	 -0.010001517	 -0.664478669
H	 -1.046877592	 0.901138945	 -1.246095296
H	 -1.118492868	 -0.941581297	 -1.207160202
N	 -3.393212708	 0.941213962	 0.000000000
H	 -3.411864114	 1.951545107	 0.021856721
C	 -3.435734545	 0.352010949	 -1.271423199
O	 -3.495695417	 1.045640340	 -2.272593653
C	 -3.400641084	 -1.098893668	 -1.234367811
H	 -3.448475378	 -1.641809986	 -2.162326776
C	 -3.301809331	 -1.734730033	 -0.049549102
H	 -3.264189569	 -2.810965612	 0.029817347
N	 -3.236516350	 -1.053209607	 1.135158318
H	 -3.133029176	 -1.537925555	 2.010767268
C	 -3.258128774	 0.327147992	 1.226820790
O	 -3.172965975	 0.924217951	 2.282422655
