18
0  1  0  1  0  1   6  12  5.72521  6.47679  5.43584  4.68426  5.36078  4.95784 14.92016 14.91817 14.89015  6.52014 -15.42754 35.80064 -3.63088 -10.22208
C	 -2.663352882	 0.035590970	 -1.929638150
H	 -2.049364502	 0.880597856	 -2.207688872
H	 -2.782847821	 -0.750085249	 -2.662547212
C	 -3.257457985	 -0.035460799	 -0.737924484
H	 -3.150133626	 0.751211801	 -0.004367704
H	 -3.874875894	 -0.880438379	 -0.467756221
N	 0.058143213	 0.941213962	 0.000000000
H	 0.076794618	 1.951545107	 -0.021856721
C	 0.100665050	 0.352010949	 1.271423199
O	 0.160625922	 1.045640340	 2.272593653
C	 0.065571589	 -1.098893668	 1.234367811
H	 0.113405883	 -1.641809986	 2.162326776
C	 -0.033260164	 -1.734730033	 0.049549102
H	 -0.070879926	 -2.810965612	 -0.029817347
N	 -0.098553145	 -1.053209607	 -1.135158318
H	 -0.202040319	 -1.537925555	 -2.010767268
C	 -0.076940721	 0.327147992	 -1.226820790
O	 -0.162103520	 0.924217951	 -2.282422655
