18
0  1  0  1  0  1   6  12 -2.40532 -2.28349 -2.47255 -2.59438 -2.50786 -2.55730 -0.07077 -0.07355 -0.07218 -2.34881 -1.33316  1.87563 -0.18419 -2.70709
C	 -3.509960561	 1.801649301	 -0.664605296
H	 -2.747365327	 2.337094644	 -1.212398475
H	 -4.309778808	 1.356203828	 -1.239575693
C	 -3.475038118	 1.699443304	 0.664501564
H	 -2.683569145	 2.150859754	 1.246118191
H	 -4.243604050	 1.167478985	 1.207183097
N	 0.058143213	 0.941213962	 0.000000000
H	 0.076794618	 1.951545107	 -0.021856721
C	 0.100665050	 0.352010949	 1.271423199
O	 0.160625922	 1.045640340	 2.272593653
C	 0.065571589	 -1.098893668	 1.234367811
H	 0.113405883	 -1.641809986	 2.162326776
C	 -0.033260164	 -1.734730033	 0.049549102
H	 -0.070879926	 -2.810965612	 -0.029817347
N	 -0.098553145	 -1.053209607	 -1.135158318
H	 -0.202040319	 -1.537925555	 -2.010767268
C	 -0.076940721	 0.327147992	 -1.226820790
O	 -0.162103520	 0.924217951	 -2.282422655
