18
0  1  0  1  0  1   6  12 -1.36103 -1.02693 -1.78245 -2.11655 -1.84072 -2.00388  4.40255  4.39989  4.39113 -1.34420 -4.40499 10.25779 -0.91061 -6.28639
C	 0.382168961	 0.035540001	 0.555545275
H	 0.315973759	 0.880546887	 1.226300172
H	 1.076634297	 -0.750136218	 0.818514153
C	 -0.352832796	 -0.035511768	 -0.554821670
H	 -1.041773782	 0.751160832	 -0.828654438
H	 -0.278096421	 -0.880489348	 -1.224605394
N	 -3.393212708	 0.941213962	 0.000000000
H	 -3.411864114	 1.951545107	 0.021856721
C	 -3.435734545	 0.352010949	 -1.271423199
O	 -3.495695417	 1.045640340	 -2.272593653
C	 -3.400641084	 -1.098893668	 -1.234367811
H	 -3.448475378	 -1.641809986	 -2.162326776
C	 -3.301809331	 -1.734730033	 -0.049549102
H	 -3.264189569	 -2.810965612	 0.029817347
N	 -3.236516350	 -1.053209607	 1.135158318
H	 -3.133029176	 -1.537925555	 2.010767268
C	 -3.258128774	 0.327147992	 1.226820790
O	 -3.172965975	 0.924217951	 2.282422655
