18
0  1  0  1  0  1   6  12 31.36008 33.14426 30.06271 28.27853 29.93293 28.94182 52.08692 52.09269 52.01053 29.39196 -36.90982 102.60047 -13.03788 -23.26080
C	 -0.841231731	 0.050916843	 0.664628191
H	 -1.603826966	 0.586362185	 1.212421370
H	 -0.041413484	 -0.394528630	 1.239598588
C	 -0.876154174	 -0.051289155	 -0.664478669
H	 -1.667623147	 0.400127295	 -1.246095296
H	 -0.107588243	 -0.583253474	 -1.207160202
N	 -3.393212708	 0.941213962	 0.000000000
H	 -3.411864114	 1.951545107	 0.021856721
C	 -3.435734545	 0.352010949	 -1.271423199
O	 -3.495695417	 1.045640340	 -2.272593653
C	 -3.400641084	 -1.098893668	 -1.234367811
H	 -3.448475378	 -1.641809986	 -2.162326776
C	 -3.301809331	 -1.734730033	 -0.049549102
H	 -3.264189569	 -2.810965612	 0.029817347
N	 -3.236516350	 -1.053209607	 1.135158318
H	 -3.133029176	 -1.537925555	 2.010767268
C	 -3.258128774	 0.327147992	 1.226820790
O	 -3.172965975	 0.924217951	 2.282422655
