18
0  1  0  1  0  1   6  12 -1.37580 -1.04243 -1.78274 -2.11611 -1.83799 -2.00234  4.55027  4.54950  4.54106 -1.29943 -4.34429 10.39257 -0.94443 -6.40329
C	 -0.321650953	 0.035540001	 0.595603621
H	 -0.935639334	 0.880546887	 0.873654343
H	 -0.202156014	 -0.750136218	 1.328512683
C	 0.272454150	 -0.035511768	 -0.596110045
H	 0.165129791	 0.751160832	 -1.329666825
H	 0.889872058	 -0.880489348	 -0.866278308
N	 -3.393212708	 0.941213962	 0.000000000
H	 -3.411864114	 1.951545107	 0.021856721
C	 -3.435734545	 0.352010949	 -1.271423199
O	 -3.495695417	 1.045640340	 -2.272593653
C	 -3.400641084	 -1.098893668	 -1.234367811
H	 -3.448475378	 -1.641809986	 -2.162326776
C	 -3.301809331	 -1.734730033	 -0.049549102
H	 -3.264189569	 -2.810965612	 0.029817347
N	 -3.236516350	 -1.053209607	 1.135158318
H	 -3.133029176	 -1.537925555	 2.010767268
C	 -3.258128774	 0.327147992	 1.226820790
O	 -3.172965975	 0.924217951	 2.282422655
