18
0  1  0  1  0  1   6  12 30.05960 31.67206 28.83332 27.22087 28.69941 27.81701 48.51726 48.51311 48.44764 28.29179 -36.68057 94.71013 -9.21285 -20.52492
C	 -1.057435658	 0.035641939	 0.595617081
H	 -1.671424039	 0.880648825	 0.873667803
H	 -0.937940719	 -0.750034280	 1.328526143
C	 -0.463330555	 -0.035409830	 -0.596096585
H	 -0.570654914	 0.751262770	 -1.329653365
H	 0.154087353	 -0.880387410	 -0.866264848
N	 -3.393212708	 0.941213962	 0.000000000
H	 -3.411864114	 1.951545107	 0.021856721
C	 -3.435734545	 0.352010949	 -1.271423199
O	 -3.495695417	 1.045640340	 -2.272593653
C	 -3.400641084	 -1.098893668	 -1.234367811
H	 -3.448475378	 -1.641809986	 -2.162326776
C	 -3.301809331	 -1.734730033	 -0.049549102
H	 -3.264189569	 -2.810965612	 0.029817347
N	 -3.236516350	 -1.053209607	 1.135158318
H	 -3.133029176	 -1.537925555	 2.010767268
C	 -3.258128774	 0.327147992	 1.226820790
O	 -3.172965975	 0.924217951	 2.282422655
