18
0  1  0  1  0  1   6  12 -2.77301 -2.62151 -3.12689 -3.27839 -3.16026 -3.22973  0.62420  0.62251  0.61971 -2.67018 -1.89585  3.29328 -0.32904 -3.73858
C	 0.237156181	 0.010680024	 0.664605296
H	 0.319567832	 0.938829541	 1.212398475
H	 0.251298209	 -0.904705633	 1.239575693
C	 0.131181969	 -0.010179253	 -0.664501564
H	 0.126385596	 0.900961209	 -1.246118191
H	 0.054770320	 -0.941759033	 -1.207183097
N	 -3.393212708	 0.941213962	 0.000000000
H	 -3.411864114	 1.951545107	 0.021856721
C	 -3.435734545	 0.352010949	 -1.271423199
O	 -3.495695417	 1.045640340	 -2.272593653
C	 -3.400641084	 -1.098893668	 -1.234367811
H	 -3.448475378	 -1.641809986	 -2.162326776
C	 -3.301809331	 -1.734730033	 -0.049549102
H	 -3.264189569	 -2.810965612	 0.029817347
N	 -3.236516350	 -1.053209607	 1.135158318
H	 -3.133029176	 -1.537925555	 2.010767268
C	 -3.258128774	 0.327147992	 1.226820790
O	 -3.172965975	 0.924217951	 2.282422655
