18
0  1  0  1  0  1   6  12 -2.71494 -2.57397 -2.88906 -3.03002 -2.92877 -2.98668  0.29272  0.29059  0.29206 -2.68171 -1.26559  2.15637 -0.27269 -3.29981
C	 0.397213721	 0.050737817	 0.664605296
H	 -0.365381514	 0.586183159	 1.212398475
H	 1.197031968	 -0.394707656	 1.239575693
C	 0.362291278	 -0.051468181	 -0.664501564
H	 -0.429177695	 0.399948269	 -1.246118191
H	 1.130857209	 -0.583432500	 -1.207183097
N	 -3.393212708	 0.941213962	 0.000000000
H	 -3.411864114	 1.951545107	 0.021856721
C	 -3.435734545	 0.352010949	 -1.271423199
O	 -3.495695417	 1.045640340	 -2.272593653
C	 -3.400641084	 -1.098893668	 -1.234367811
H	 -3.448475378	 -1.641809986	 -2.162326776
C	 -3.301809331	 -1.734730033	 -0.049549102
H	 -3.264189569	 -2.810965612	 0.029817347
N	 -3.236516350	 -1.053209607	 1.135158318
H	 -3.133029176	 -1.537925555	 2.010767268
C	 -3.258128774	 0.327147992	 1.226820790
O	 -3.172965975	 0.924217951	 2.282422655
