18
0  1  0  1  0  1   6  12  5.25461  5.98879  4.56272  3.82853  4.47685  4.09223 15.72052 15.71904 15.69580  5.22350 -12.64323 32.07505 -2.86210 -11.34623
C	 -0.689543306	 0.035590970	 0.595610351
H	 -1.303531687	 0.880597856	 0.873661073
H	 -0.570048367	 -0.750085249	 1.328519413
C	 -0.095438203	 -0.035460799	 -0.596103315
H	 -0.202762562	 0.751211801	 -1.329660095
H	 0.521979705	 -0.880438379	 -0.866271578
N	 -3.393212708	 0.941213962	 0.000000000
H	 -3.411864114	 1.951545107	 0.021856721
C	 -3.435734545	 0.352010949	 -1.271423199
O	 -3.495695417	 1.045640340	 -2.272593653
C	 -3.400641084	 -1.098893668	 -1.234367811
H	 -3.448475378	 -1.641809986	 -2.162326776
C	 -3.301809331	 -1.734730033	 -0.049549102
H	 -3.264189569	 -2.810965612	 0.029817347
N	 -3.236516350	 -1.053209607	 1.135158318
H	 -3.133029176	 -1.537925555	 2.010767268
C	 -3.258128774	 0.327147992	 1.226820790
O	 -3.172965975	 0.924217951	 2.282422655
