18
0  1  0  1  0  1   6  12 27.22967 28.91981 26.63345 24.94330 26.49306 25.56803 45.87458 45.86820 45.79927 27.35719 -39.02804 93.45654 -6.64642 -20.42490
C	 -2.345622660	 1.218191166	 -0.664628191
H	 -1.583027426	 1.753636509	 -1.212421370
H	 -3.145440907	 0.772745693	 -1.239598588
C	 -2.310700217	 1.115985169	 0.664478669
H	 -1.519231244	 1.567401619	 1.246095296
H	 -3.079266149	 0.584020850	 1.207160202
N	 0.058143213	 0.941213962	 0.000000000
H	 0.076794618	 1.951545107	 -0.021856721
C	 0.100665050	 0.352010949	 1.271423199
O	 0.160625922	 1.045640340	 2.272593653
C	 0.065571589	 -1.098893668	 1.234367811
H	 0.113405883	 -1.641809986	 2.162326776
C	 -0.033260164	 -1.734730033	 0.049549102
H	 -0.070879926	 -2.810965612	 -0.029817347
N	 -0.098553145	 -1.053209607	 -1.135158318
H	 -0.202040319	 -1.537925555	 -2.010767268
C	 -0.076940721	 0.327147992	 -1.226820790
O	 -0.162103520	 0.924217951	 -2.282422655
