18
0  1  0  1  0  1   6  12 -2.33642 -2.17939 -2.58440 -2.74143 -2.62068 -2.69196  1.03132  1.03022  1.02672 -2.30291 -1.56695  3.27151 -0.34136 -3.66611
C	 0.046241400	 0.035489032	 0.595596891
H	 -0.567746981	 0.880495918	 0.873647613
H	 0.165736339	 -0.750187187	 1.328505953
C	 0.640346503	 -0.035562737	 -0.596116775
H	 0.533022144	 0.751109863	 -1.329673555
H	 1.257764411	 -0.880540317	 -0.866285038
N	 -3.393212708	 0.941213962	 0.000000000
H	 -3.411864114	 1.951545107	 0.021856721
C	 -3.435734545	 0.352010949	 -1.271423199
O	 -3.495695417	 1.045640340	 -2.272593653
C	 -3.400641084	 -1.098893668	 -1.234367811
H	 -3.448475378	 -1.641809986	 -2.162326776
C	 -3.301809331	 -1.734730033	 -0.049549102
H	 -3.264189569	 -2.810965612	 0.029817347
N	 -3.236516350	 -1.053209607	 1.135158318
H	 -3.133029176	 -1.537925555	 2.010767268
C	 -3.258128774	 0.327147992	 1.226820790
O	 -3.172965975	 0.924217951	 2.282422655
