18
0  1  0  1  0  1   6  12 35.06678 36.73994 34.40963 32.73647 34.29322 33.37033 52.25550 52.24976 52.19549 34.56749 -45.83924 112.30050 -12.14203 -19.75174
C	 -2.293232193	 0.035641939	 -1.762891405
H	 -1.679243813	 0.880648825	 -2.040942127
H	 -2.412727132	 -0.750034280	 -2.495800467
C	 -2.887337296	 -0.035409830	 -0.571177739
H	 -2.780012937	 0.751262770	 0.162379041
H	 -3.504755205	 -0.880387410	 -0.301009476
N	 0.058143213	 0.941213962	 0.000000000
H	 0.076794618	 1.951545107	 -0.021856721
C	 0.100665050	 0.352010949	 1.271423199
O	 0.160625922	 1.045640340	 2.272593653
C	 0.065571589	 -1.098893668	 1.234367811
H	 0.113405883	 -1.641809986	 2.162326776
C	 -0.033260164	 -1.734730033	 0.049549102
H	 -0.070879926	 -2.810965612	 -0.029817347
N	 -0.098553145	 -1.053209607	 -1.135158318
H	 -0.202040319	 -1.537925555	 -2.010767268
C	 -0.076940721	 0.327147992	 -1.226820790
O	 -0.162103520	 0.924217951	 -2.282422655
