18
0  1  0  1  0  1   6  12 -1.91617 -1.83886 -2.07335 -2.15067 -2.09667 -2.12853  0.01632  0.01503  0.01350 -1.91003 -0.64284  1.01396 -0.14213 -2.13901
C	 0.414133753	 0.035438063	 0.595590161
H	 -0.199854628	 0.880444949	 0.873640883
H	 0.533628692	 -0.750238156	 1.328499223
C	 1.008238856	 -0.035613706	 -0.596123505
H	 0.900914497	 0.751058894	 -1.329680285
H	 1.625656764	 -0.880591286	 -0.866291768
N	 -3.393212708	 0.941213962	 0.000000000
H	 -3.411864114	 1.951545107	 0.021856721
C	 -3.435734545	 0.352010949	 -1.271423199
O	 -3.495695417	 1.045640340	 -2.272593653
C	 -3.400641084	 -1.098893668	 -1.234367811
H	 -3.448475378	 -1.641809986	 -2.162326776
C	 -3.301809331	 -1.734730033	 -0.049549102
H	 -3.264189569	 -2.810965612	 0.029817347
N	 -3.236516350	 -1.053209607	 1.135158318
H	 -3.133029176	 -1.537925555	 2.010767268
C	 -3.258128774	 0.327147992	 1.226820790
O	 -3.172965975	 0.924217951	 2.282422655
