18
0  1  0  1  0  1   6  12 -2.64671 -2.47305 -2.72783 -2.90150 -2.77164 -2.84653  0.47550  0.47313  0.47357 -2.54546 -2.01577  3.33501 -0.29439 -3.57032
C	 -3.343626575	 1.718298139	 -0.664608567
H	 -2.581031341	 2.253743482	 -1.212401746
H	 -4.143444822	 1.272852666	 -1.239578964
C	 -3.308704132	 1.616092142	 0.664498293
H	 -2.517235159	 2.067508592	 1.246114920
H	 -4.077270064	 1.084127823	 1.207179826
N	 0.058143213	 0.941213962	 0.000000000
H	 0.076794618	 1.951545107	 -0.021856721
C	 0.100665050	 0.352010949	 1.271423199
O	 0.160625922	 1.045640340	 2.272593653
C	 0.065571589	 -1.098893668	 1.234367811
H	 0.113405883	 -1.641809986	 2.162326776
C	 -0.033260164	 -1.734730033	 0.049549102
H	 -0.070879926	 -2.810965612	 -0.029817347
N	 -0.098553145	 -1.053209607	 -1.135158318
H	 -0.202040319	 -1.537925555	 -2.010767268
C	 -0.076940721	 0.327147992	 -1.226820790
O	 -0.162103520	 0.924217951	 -2.282422655
