18
0  1  0  1  0  1   6  12 -2.03803 -1.67523 -2.17029 -2.53309 -2.23644 -2.41000  3.60153  3.59997  3.59509 -1.75850 -5.07253 10.40813 -0.79786 -6.29623
C	 -3.010958603	 1.551595815	 -0.664615108
H	 -2.248363369	 2.087041158	 -1.212408287
H	 -3.810776850	 1.106150342	 -1.239585505
C	 -2.976036160	 1.449389818	 0.664491752
H	 -2.184567187	 1.900806268	 1.246108379
H	 -3.744602092	 0.917425499	 1.207173285
N	 0.058143213	 0.941213962	 0.000000000
H	 0.076794618	 1.951545107	 -0.021856721
C	 0.100665050	 0.352010949	 1.271423199
O	 0.160625922	 1.045640340	 2.272593653
C	 0.065571589	 -1.098893668	 1.234367811
H	 0.113405883	 -1.641809986	 2.162326776
C	 -0.033260164	 -1.734730033	 0.049549102
H	 -0.070879926	 -2.810965612	 -0.029817347
N	 -0.098553145	 -1.053209607	 -1.135158318
H	 -0.202040319	 -1.537925555	 -2.010767268
C	 -0.076940721	 0.327147992	 -1.226820790
O	 -0.162103520	 0.924217951	 -2.282422655
