18
0  1  0  1  0  1   6  12 -1.69882 -1.62811 -1.86044 -1.93115 -1.87716 -1.90811 -0.12149 -0.12056 -0.11994 -1.65096 -0.78959  1.13319 -0.18248 -1.81207
C	 -3.974123131	 -1.823633589	 -0.664602026
H	 -4.056534783	 -0.895484072	 -1.212395205
H	 -3.988265159	 -2.739019246	 -1.239572423
C	 -3.868148919	 -1.844492865	 0.664504834
H	 -3.863352546	 -0.933352403	 1.246121461
H	 -3.791737271	 -2.776072646	 1.207186367
N	 0.058143213	 0.941213962	 0.000000000
H	 0.076794618	 1.951545107	 -0.021856721
C	 0.100665050	 0.352010949	 1.271423199
O	 0.160625922	 1.045640340	 2.272593653
C	 0.065571589	 -1.098893668	 1.234367811
H	 0.113405883	 -1.641809986	 2.162326776
C	 -0.033260164	 -1.734730033	 0.049549102
H	 -0.070879926	 -2.810965612	 -0.029817347
N	 -0.098553145	 -1.053209607	 -1.135158318
H	 -0.202040319	 -1.537925555	 -2.010767268
C	 -0.076940721	 0.327147992	 -1.226820790
O	 -0.162103520	 0.924217951	 -2.282422655
