18
0  1  0  1  0  1   6  12  4.18080  5.09845  3.02704  2.10939  2.93097  2.44616 17.24030 17.24247 17.21917  4.74939 -18.30484 40.92797 -3.81171 -14.06202
C	 0.708620326	 0.002809727	 2.748947749
H	 1.225738063	 -0.868178169	 2.371721154
H	 1.314231331	 0.789803771	 3.176262083
C	 -0.620156175	 0.103400175	 2.699700820
H	 -1.232159062	 -0.684079415	 2.282800102
H	 -1.131981166	 0.974469766	 3.083700585
N	 -0.050873655	 -0.980081266	 0.033962193
H	 -0.053222049	 -1.990693742	 0.049821668
C	 -1.308813157	 -0.361876381	 0.004025957
O	 -2.327219998	 -1.032554922	 -0.005828865
C	 -1.236818490	 1.088048291	 -0.012224403
H	 -2.152738973	 1.651460442	 -0.054774427
C	 -0.035194332	 1.697835844	 0.033704832
H	 0.070366356	 2.772475747	 0.031882239
N	 1.134529129	 0.990282506	 0.091844614
H	 2.023720319	 1.456772182	 0.155692772
C	 1.193185991	 -0.391832869	 0.115775123
O	 2.236397967	 -1.011188263	 0.194185623
