18
0  1  0  1  0  1   6  12 -2.91895 -2.70825 -3.36214 -3.57283 -3.40262 -3.50264  1.48429  1.48289  1.47906 -2.74963 -2.86730  5.37670 -0.49253 -4.76651
C	 0.069547154	 0.010705415	 0.664608567
H	 0.151958805	 0.938854932	 1.212401746
H	 0.083689182	 -0.904680242	 1.239578964
C	 -0.036427058	 -0.010153862	 -0.664498293
H	 -0.041223431	 0.900986600	 -1.246114920
H	 -0.112838707	 -0.941733642	 -1.207179826
N	 -3.393212708	 0.941213962	 0.000000000
H	 -3.411864114	 1.951545107	 0.021856721
C	 -3.435734545	 0.352010949	 -1.271423199
O	 -3.495695417	 1.045640340	 -2.272593653
C	 -3.400641084	 -1.098893668	 -1.234367811
H	 -3.448475378	 -1.641809986	 -2.162326776
C	 -3.301809331	 -1.734730033	 -0.049549102
H	 -3.264189569	 -2.810965612	 0.029817347
N	 -3.236516350	 -1.053209607	 1.135158318
H	 -3.133029176	 -1.537925555	 2.010767268
C	 -3.258128774	 0.327147992	 1.226820790
O	 -3.172965975	 0.924217951	 2.282422655
