18
0  1  0  1  0  1   6  12  3.86551  4.69470  2.68305  1.85386  2.58878  2.15641 16.49347 16.49232 16.47455  4.57226 -16.55723 36.89470 -2.82848 -12.93673
C	 -0.600888953	 0.010806978	 0.664621649
H	 -0.518477302	 0.938956495	 1.212414828
H	 -0.586746925	 -0.904578679	 1.239592046
C	 -0.706863165	 -0.010052299	 -0.664485211
H	 -0.711659538	 0.901088163	 -1.246101838
H	 -0.783274814	 -0.941632079	 -1.207166744
N	 -3.393212708	 0.941213962	 0.000000000
H	 -3.411864114	 1.951545107	 0.021856721
C	 -3.435734545	 0.352010949	 -1.271423199
O	 -3.495695417	 1.045640340	 -2.272593653
C	 -3.400641084	 -1.098893668	 -1.234367811
H	 -3.448475378	 -1.641809986	 -2.162326776
C	 -3.301809331	 -1.734730033	 -0.049549102
H	 -3.264189569	 -2.810965612	 0.029817347
N	 -3.236516350	 -1.053209607	 1.135158318
H	 -3.133029176	 -1.537925555	 2.010767268
C	 -3.258128774	 0.327147992	 1.226820790
O	 -3.172965975	 0.924217951	 2.282422655
