18
0  1  0  1  0  1   6  12 -2.17095 -1.93586 -2.42338 -2.65848 -2.46595 -2.58020  1.63171  1.63179  1.62481 -2.00595 -2.98656  5.98438 -0.73206 -4.27171
C	 -3.750149207	 0.035514516	 1.028615915
H	 -3.683954006	 0.880521402	 0.357861019
H	 -4.444614543	 -0.750161703	 0.765647037
C	 -3.015147450	 -0.035537253	 2.138982860
H	 -2.326206464	 0.751135347	 2.412815628
H	 -3.089883826	 -0.880514833	 2.808766585
N	 0.058143213	 0.941213962	 0.000000000
H	 0.076794618	 1.951545107	 -0.021856721
C	 0.100665050	 0.352010949	 1.271423199
O	 0.160625922	 1.045640340	 2.272593653
C	 0.065571589	 -1.098893668	 1.234367811
H	 0.113405883	 -1.641809986	 2.162326776
C	 -0.033260164	 -1.734730033	 0.049549102
H	 -0.070879926	 -2.810965612	 -0.029817347
N	 -0.098553145	 -1.053209607	 -1.135158318
H	 -0.202040319	 -1.537925555	 -2.010767268
C	 -0.076940721	 0.327147992	 -1.226820790
O	 -0.162103520	 0.924217951	 -2.282422655
