18
0  1  0  1  0  1   6  12 30.27738 31.89016 29.11416 27.50138 29.00134 28.11237 47.14316 47.14141 47.08971 28.95683 -40.91400 102.81747 -13.03300 -19.91365
C	 -2.859845627	 0.035641939	 0.611716325
H	 -2.793650426	 0.880648825	 -0.059038571
H	 -3.554310963	 -0.750034280	 0.348747447
C	 -2.124843870	 -0.035409830	 1.722083270
H	 -1.435902884	 0.751262770	 1.995916038
H	 -2.199580246	 -0.880387410	 2.391866995
N	 0.058143213	 0.941213962	 0.000000000
H	 0.076794618	 1.951545107	 -0.021856721
C	 0.100665050	 0.352010949	 1.271423199
O	 0.160625922	 1.045640340	 2.272593653
C	 0.065571589	 -1.098893668	 1.234367811
H	 0.113405883	 -1.641809986	 2.162326776
C	 -0.033260164	 -1.734730033	 0.049549102
H	 -0.070879926	 -2.810965612	 -0.029817347
N	 -0.098553145	 -1.053209607	 -1.135158318
H	 -0.202040319	 -1.537925555	 -2.010767268
C	 -0.076940721	 0.327147992	 -1.226820790
O	 -0.162103520	 0.924217951	 -2.282422655
