18
0  1  0  1  0  1   6  12 -1.52331 -1.23853 -1.99481 -2.27959 -2.03801 -2.17938  3.67988  3.68061  3.67658 -1.19217 -4.39982  9.57491 -0.97497 -5.39229
C	 -3.261089127	 -1.490025077	 -0.664615108
H	 -3.343500779	 -0.561875560	 -1.212408287
H	 -3.275231155	 -2.405410734	 -1.239585505
C	 -3.155114915	 -1.510884353	 0.664491752
H	 -3.150318542	 -0.599743891	 1.246108379
H	 -3.078703267	 -2.442464134	 1.207173285
N	 0.058143213	 0.941213962	 0.000000000
H	 0.076794618	 1.951545107	 -0.021856721
C	 0.100665050	 0.352010949	 1.271423199
O	 0.160625922	 1.045640340	 2.272593653
C	 0.065571589	 -1.098893668	 1.234367811
H	 0.113405883	 -1.641809986	 2.162326776
C	 -0.033260164	 -1.734730033	 0.049549102
H	 -0.070879926	 -2.810965612	 -0.029817347
N	 -0.098553145	 -1.053209607	 -1.135158318
H	 -0.202040319	 -1.537925555	 -2.010767268
C	 -0.076940721	 0.327147992	 -1.226820790
O	 -0.162103520	 0.924217951	 -2.282422655
