18
0  1  0  1  0  1   6  12 15.48672 16.69165 13.77162 12.56668 13.65208 13.01150 32.37303 32.36913 32.33812 16.87659 -32.01896 72.23125 -6.58504 -16.75067
C	 -2.548055124	 -1.156416564	 -0.664628191
H	 -2.630466776	 -0.228267047	 -1.212421370
H	 -2.562197152	 -2.071802221	 -1.239598588
C	 -2.442080912	 -1.177275840	 0.664478669
H	 -2.437284539	 -0.266135378	 1.246095296
H	 -2.365669264	 -2.108855621	 1.207160202
N	 0.058143213	 0.941213962	 0.000000000
H	 0.076794618	 1.951545107	 -0.021856721
C	 0.100665050	 0.352010949	 1.271423199
O	 0.160625922	 1.045640340	 2.272593653
C	 0.065571589	 -1.098893668	 1.234367811
H	 0.113405883	 -1.641809986	 2.162326776
C	 -0.033260164	 -1.734730033	 0.049549102
H	 -0.070879926	 -2.810965612	 -0.029817347
N	 -0.098553145	 -1.053209607	 -1.135158318
H	 -0.202040319	 -1.537925555	 -2.010767268
C	 -0.076940721	 0.327147992	 -1.226820790
O	 -0.162103520	 0.924217951	 -2.282422655
