18
0  1  0  1  0  1   6  12 -1.52695 -1.19243 -1.65972 -1.99423 -1.70808 -1.87803  3.27155  3.27248  3.26177 -1.14901 -5.32378 10.79009 -1.18103 -5.43429
C	 -3.033473572	 0.035540001	 -2.096384894
H	 -2.419485192	 0.880546887	 -2.374435616
H	 -3.152968511	 -0.750136218	 -2.829293956
C	 -3.627578675	 -0.035511768	 -0.904671228
H	 -3.520254316	 0.751160832	 -0.171114448
H	 -4.244996584	 -0.880489348	 -0.634502965
N	 0.058143213	 0.941213962	 0.000000000
H	 0.076794618	 1.951545107	 -0.021856721
C	 0.100665050	 0.352010949	 1.271423199
O	 0.160625922	 1.045640340	 2.272593653
C	 0.065571589	 -1.098893668	 1.234367811
H	 0.113405883	 -1.641809986	 2.162326776
C	 -0.033260164	 -1.734730033	 0.049549102
H	 -0.070879926	 -2.810965612	 -0.029817347
N	 -0.098553145	 -1.053209607	 -1.135158318
H	 -0.202040319	 -1.537925555	 -2.010767268
C	 -0.076940721	 0.327147992	 -1.226820790
O	 -0.162103520	 0.924217951	 -2.282422655
