18
0  1  0  1  0  1   6  12 -1.84241 -1.76494 -1.96301 -2.04048 -1.98486 -2.01714 -0.30697 -0.30769 -0.30799 -1.82626 -0.83444  0.99832 -0.17714 -1.81301
C	 -4.284331355	 0.035438063	 1.278755669
H	 -4.218136154	 0.880444949	 0.608000773
H	 -4.978796691	 -0.750238156	 1.015786791
C	 -3.549329598	 -0.035613706	 2.389122614
H	 -2.860388612	 0.751058894	 2.662955382
H	 -3.624065974	 -0.880591286	 3.058906339
N	 0.058143213	 0.941213962	 0.000000000
H	 0.076794618	 1.951545107	 -0.021856721
C	 0.100665050	 0.352010949	 1.271423199
O	 0.160625922	 1.045640340	 2.272593653
C	 0.065571589	 -1.098893668	 1.234367811
H	 0.113405883	 -1.641809986	 2.162326776
C	 -0.033260164	 -1.734730033	 0.049549102
H	 -0.070879926	 -2.810965612	 -0.029817347
N	 -0.098553145	 -1.053209607	 -1.135158318
H	 -0.202040319	 -1.537925555	 -2.010767268
C	 -0.076940721	 0.327147992	 -1.226820790
O	 -0.162103520	 0.924217951	 -2.282422655
