18
0  1  0  1  0  1   6  12  2.12099  2.70120  1.24608  0.66587  1.17294  0.87445 11.53205 11.53043 11.51779  2.90899 -11.82225 26.68429 -2.51198 -9.44106
C	 -2.904572126	 -1.323220820	 -0.664621649
H	 -2.986983778	 -0.395071303	 -1.212414828
H	 -2.918714154	 -2.238606477	 -1.239592046
C	 -2.798597914	 -1.344080096	 0.664485211
H	 -2.793801541	 -0.432939634	 1.246101838
H	 -2.722186266	 -2.275659877	 1.207166744
N	 0.058143213	 0.941213962	 0.000000000
H	 0.076794618	 1.951545107	 -0.021856721
C	 0.100665050	 0.352010949	 1.271423199
O	 0.160625922	 1.045640340	 2.272593653
C	 0.065571589	 -1.098893668	 1.234367811
H	 0.113405883	 -1.641809986	 2.162326776
C	 -0.033260164	 -1.734730033	 0.049549102
H	 -0.070879926	 -2.810965612	 -0.029817347
N	 -0.098553145	 -1.053209607	 -1.135158318
H	 -0.202040319	 -1.537925555	 -2.010767268
C	 -0.076940721	 0.327147992	 -1.226820790
O	 -0.162103520	 0.924217951	 -2.282422655
