18
0  1  0  1  0  1   6  12 -2.86480 -2.73893 -3.12631 -3.25218 -3.15852 -3.21309 -0.11466 -0.11721 -0.11821 -2.79102 -1.50995  2.10572 -0.25356 -3.13322
C	 0.735389721	 0.037052248	 3.748523854
H	 1.252507458	 -0.833935648	 3.371297259
H	 1.341000726	 0.824046292	 4.175838188
C	 -0.593386780	 0.137642696	 3.699276925
H	 -1.205389667	 -0.649836894	 3.282376207
H	 -1.105211771	 1.008712287	 4.083276690
N	 -0.050873655	 -0.980081266	 0.033962193
H	 -0.053222049	 -1.990693742	 0.049821668
C	 -1.308813157	 -0.361876381	 0.004025957
O	 -2.327219998	 -1.032554922	 -0.005828865
C	 -1.236818490	 1.088048291	 -0.012224403
H	 -2.152738973	 1.651460442	 -0.054774427
C	 -0.035194332	 1.697835844	 0.033704832
H	 0.070366356	 2.772475747	 0.031882239
N	 1.134529129	 0.990282506	 0.091844614
H	 2.023720319	 1.456772182	 0.155692772
C	 1.193185991	 -0.391832869	 0.115775123
O	 2.236397967	 -1.011188263	 0.194185623
