18
0  1  0  1  0  1   6  12 -2.33342 -2.17836 -2.59961 -2.75467 -2.63715 -2.70598  0.91353  0.91186  0.90976 -2.35336 -1.66639  3.24435 -0.33222 -3.59910
C	 0.754418167	 0.035489032	 0.555538914
H	 0.688222965	 0.880495918	 1.226293811
H	 1.448883503	 -0.750187187	 0.818507792
C	 0.019416410	 -0.035562737	 -0.554828031
H	 -0.669524576	 0.751109863	 -0.828660799
H	 0.094152785	 -0.880540317	 -1.224611755
N	 -3.393212708	 0.941213962	 0.000000000
H	 -3.411864114	 1.951545107	 0.021856721
C	 -3.435734545	 0.352010949	 -1.271423199
O	 -3.495695417	 1.045640340	 -2.272593653
C	 -3.400641084	 -1.098893668	 -1.234367811
H	 -3.448475378	 -1.641809986	 -2.162326776
C	 -3.301809331	 -1.734730033	 -0.049549102
H	 -3.264189569	 -2.810965612	 0.029817347
N	 -3.236516350	 -1.053209607	 1.135158318
H	 -3.133029176	 -1.537925555	 2.010767268
C	 -3.258128774	 0.327147992	 1.226820790
O	 -3.172965975	 0.924217951	 2.282422655
