18
0  1  0  1  0  1   6  12 -2.18406 -2.07455 -2.38067 -2.49017 -2.40985 -2.45725  0.36278  0.36150  0.35922 -2.16716 -0.98202  1.82359 -0.21611 -2.79263
C	 0.230187576	 0.035463548	 0.595593526
H	 -0.383800805	 0.880470434	 0.873644248
H	 0.349682515	 -0.750212671	 1.328502588
C	 0.824292679	 -0.035588221	 -0.596120140
H	 0.716968320	 0.751084379	 -1.329676920
H	 1.441710587	 -0.880565801	 -0.866288403
N	 -3.393212708	 0.941213962	 0.000000000
H	 -3.411864114	 1.951545107	 0.021856721
C	 -3.435734545	 0.352010949	 -1.271423199
O	 -3.495695417	 1.045640340	 -2.272593653
C	 -3.400641084	 -1.098893668	 -1.234367811
H	 -3.448475378	 -1.641809986	 -2.162326776
C	 -3.301809331	 -1.734730033	 -0.049549102
H	 -3.264189569	 -2.810965612	 0.029817347
N	 -3.236516350	 -1.053209607	 1.135158318
H	 -3.133029176	 -1.537925555	 2.010767268
C	 -3.258128774	 0.327147992	 1.226820790
O	 -3.172965975	 0.924217951	 2.282422655
