18
0  1  0  1  0  1   6  12 -2.28251 -1.82313 -2.96034 -3.41972 -3.02824 -3.25733  5.49581  5.49587  5.48931 -1.91401 -7.47988 15.44290 -1.44089 -8.43614
C	 0.717543457	 0.014223900	 3.082139784
H	 1.234661194	 -0.856763996	 2.704913189
H	 1.323154462	 0.801217944	 3.509454118
C	 -0.611233044	 0.114814348	 3.032892855
H	 -1.223235931	 -0.672665242	 2.615992137
H	 -1.123058035	 0.985883939	 3.416892620
N	 -0.050873655	 -0.980081266	 0.033962193
H	 -0.053222049	 -1.990693742	 0.049821668
C	 -1.308813157	 -0.361876381	 0.004025957
O	 -2.327219998	 -1.032554922	 -0.005828865
C	 -1.236818490	 1.088048291	 -0.012224403
H	 -2.152738973	 1.651460442	 -0.054774427
C	 -0.035194332	 1.697835844	 0.033704832
H	 0.070366356	 2.772475747	 0.031882239
N	 1.134529129	 0.990282506	 0.091844614
H	 2.023720319	 1.456772182	 0.155692772
C	 1.193185991	 -0.391832869	 0.115775123
O	 2.236397967	 -1.011188263	 0.194185623
