16
0  1  0  1  0  1   4  12 -2.73896 -2.59840 -3.09586 -3.23642 -3.11899 -3.18797  0.09918  0.09785  0.09527 -2.68376 -1.78376  2.64461 -0.36483 -3.17978
C	 0.610429487	 0.536344943	 0.006605774
H	 1.085980965	 1.487035952	 0.000023553
C	 0.045938887	 -0.536954480	 -0.004506048
H	 -0.441981992	 -1.480056732	 -0.024435635
N	 -3.342196415	 0.296297303	 -0.895526594
H	 -3.304830943	 0.622854891	 -1.851317150
C	 -3.479333748	 -1.088354443	 -0.725481450
O	 -3.596971624	 -1.823149134	 -1.691069222
C	 -3.466953395	 -1.501326344	 0.667206785
H	 -3.592186280	 -2.544926487	 0.898604544
C	 -3.297985380	 -0.579589105	 1.636417686
H	 -3.275372783	 -0.836383192	 2.684988245
N	 -3.139965958	 0.749115661	 1.350531724
H	 -2.963170035	 1.420458360	 2.078764475
C	 -3.106132393	 1.255347994	 0.063655668
O	 -2.896413862	 2.429005246	 -0.179850302
