16
0  1  0  1  0  1   4  12 -1.54395 -1.17416 -1.98488 -2.35467 -2.02139 -2.21838  3.94715  3.94974  3.93953 -1.42499 -5.21559 11.73261 -1.73290 -6.20911
C	 -0.288250838	 0.513045886	 0.006535115
H	 -0.873797664	 1.400231051	 -0.000047106
C	 0.359008428	 -0.512467025	 -0.004576707
H	 0.931798497	 -1.406570028	 -0.024506294
N	 -3.342196415	 0.296297303	 -0.895526594
H	 -3.304830943	 0.622854891	 -1.851317150
C	 -3.479333748	 -1.088354443	 -0.725481450
O	 -3.596971624	 -1.823149134	 -1.691069222
C	 -3.466953395	 -1.501326344	 0.667206785
H	 -3.592186280	 -2.544926487	 0.898604544
C	 -3.297985380	 -0.579589105	 1.636417686
H	 -3.275372783	 -0.836383192	 2.684988245
N	 -3.139965958	 0.749115661	 1.350531724
H	 -2.963170035	 1.420458360	 2.078764475
C	 -3.106132393	 1.255347994	 0.063655668
O	 -2.896413862	 2.429005246	 -0.179850302
