16
0  1  0  1  0  1   4  12 15.74106 16.99446 13.76861 12.51520 13.69408 13.00165 31.08877 31.08617 31.06036 15.61668 -29.89625 70.14166 -8.45120 -16.17753
C	 -2.617275132	 -0.613535825	 -0.006440904
H	 -3.092826610	 0.337155184	 0.000141317
C	 -2.052784532	 -1.686835248	 0.004670918
H	 -1.564863653	 -2.629937500	 0.024600505
N	 0.056602857	 0.296297303	 0.895526594
H	 0.019237385	 0.622854891	 1.851317150
C	 0.193740190	 -1.088354443	 0.725481450
O	 0.311378066	 -1.823149134	 1.691069222
C	 0.181359837	 -1.501326344	 -0.667206785
H	 0.306592722	 -2.544926487	 -0.898604544
C	 0.012391822	 -0.579589105	 -1.636417686
H	 -0.010220775	 -0.836383192	 -2.684988245
N	 -0.145627600	 0.749115661	 -1.350531724
H	 -0.322423523	 1.420458360	 -2.078764475
C	 -0.179461165	 1.255347994	 -0.063655668
O	 -0.389179696	 2.429005246	 0.179850302
