16
0  1  0  1  0  1   4  12 -2.34036 -2.25732 -2.49016 -2.57320 -2.50725 -2.54465 -0.64836 -0.64923 -0.64751 -2.28011 -1.10098  1.02986 -0.22892 -1.98007
C	 0.449630774	 0.513002624	 0.006629327
H	 -0.135916052	 1.400187789	 0.000047106
C	 1.096890040	 -0.512510287	 -0.004482495
H	 1.669680109	 -1.406613290	 -0.024412082
N	 -3.342196415	 0.296297303	 -0.895526594
H	 -3.304830943	 0.622854891	 -1.851317150
C	 -3.479333748	 -1.088354443	 -0.725481450
O	 -3.596971624	 -1.823149134	 -1.691069222
C	 -3.466953395	 -1.501326344	 0.667206785
H	 -3.592186280	 -2.544926487	 0.898604544
C	 -3.297985380	 -0.579589105	 1.636417686
H	 -3.275372783	 -0.836383192	 2.684988245
N	 -3.139965958	 0.749115661	 1.350531724
H	 -2.963170035	 1.420458360	 2.078764475
C	 -3.106132393	 1.255347994	 0.063655668
O	 -2.896413862	 2.429005246	 -0.179850302
