16
0  1  0  1  0  1   4  12 -2.23819 -1.86077 -2.66989 -3.04731 -2.70696 -2.90489  3.23342  3.23456  3.23179 -1.85063 -6.69229 11.71621 -0.89376 -5.98078
C	 -2.827594750	 0.605881751	 1.461197724
H	 -2.769305966	 1.666980055	 1.435145173
C	 -2.863423173	 -0.605868115	 1.494714100
H	 -2.895892974	 -1.666579063	 1.536473253
N	 0.056602857	 0.296297303	 0.895526594
H	 0.019237385	 0.622854891	 1.851317150
C	 0.193740190	 -1.088354443	 0.725481450
O	 0.311378066	 -1.823149134	 1.691069222
C	 0.181359837	 -1.501326344	 -0.667206785
H	 0.306592722	 -2.544926487	 -0.898604544
C	 0.012391822	 -0.579589105	 -1.636417686
H	 -0.010220775	 -0.836383192	 -2.684988245
N	 -0.145627600	 0.749115661	 -1.350531724
H	 -0.322423523	 1.420458360	 -2.078764475
C	 -0.179461165	 1.255347994	 -0.063655668
O	 -0.389179696	 2.429005246	 0.179850302
