16
0  1  0  1  0  1   4  12 -2.32493 -2.21938 -2.51102 -2.61656 -2.52796 -2.57838 -0.38498 -0.38634 -0.38443 -2.19920 -1.52259  1.88759 -0.26599 -2.29821
C	 -3.633426823	 0.605849031	 -1.718994745
H	 -3.581720260	 1.666947335	 -1.681541453
C	 -3.680367068	 -0.605900835	 -1.733264881
H	 -3.732766456	 -1.666611783	 -1.740504977
N	 0.056602857	 0.296297303	 0.895526594
H	 0.019237385	 0.622854891	 1.851317150
C	 0.193740190	 -1.088354443	 0.725481450
O	 0.311378066	 -1.823149134	 1.691069222
C	 0.181359837	 -1.501326344	 -0.667206785
H	 0.306592722	 -2.544926487	 -0.898604544
C	 0.012391822	 -0.579589105	 -1.636417686
H	 -0.010220775	 -0.836383192	 -2.684988245
N	 -0.145627600	 0.749115661	 -1.350531724
H	 -0.322423523	 1.420458360	 -2.078764475
C	 -0.179461165	 1.255347994	 -0.063655668
O	 -0.389179696	 2.429005246	 0.179850302
