16
0  1  0  1  0  1   4  12 -2.56765 -2.47525 -2.70175 -2.79415 -2.71590 -2.76072 -0.85766 -0.85876 -0.85776 -2.45365 -1.57728  1.35148 -0.15743 -2.07042
C	 -3.459706188	 0.605838125	 1.789663408
H	 -3.401417404	 1.666936429	 1.763610857
C	 -3.495534611	 -0.605911741	 1.823179784
H	 -3.528004412	 -1.666622689	 1.864938937
N	 0.056602857	 0.296297303	 0.895526594
H	 0.019237385	 0.622854891	 1.851317150
C	 0.193740190	 -1.088354443	 0.725481450
O	 0.311378066	 -1.823149134	 1.691069222
C	 0.181359837	 -1.501326344	 -0.667206785
H	 0.306592722	 -2.544926487	 -0.898604544
C	 0.012391822	 -0.579589105	 -1.636417686
H	 -0.010220775	 -0.836383192	 -2.684988245
N	 -0.145627600	 0.749115661	 -1.350531724
H	 -0.322423523	 1.420458360	 -2.078764475
C	 -0.179461165	 1.255347994	 -0.063655668
O	 -0.389179696	 2.429005246	 0.179850302
