16
0  1  0  1  0  1   4  12 26.64364 28.51574 24.25785 22.38575 24.16331 23.10625 46.68140 46.68072 46.61102 25.94764 -45.10928 102.10339 -9.62812 -21.41836
C	 -1.009581441	 0.605925378	 -0.006107066
H	 -1.061288005	 1.667023682	 -0.043560358
C	 -0.962641197	 -0.605824488	 0.008163070
H	 -0.910241809	 -1.666535436	 0.015403166
N	 -3.342196415	 0.296297303	 -0.895526594
H	 -3.304830943	 0.622854891	 -1.851317150
C	 -3.479333748	 -1.088354443	 -0.725481450
O	 -3.596971624	 -1.823149134	 -1.691069222
C	 -3.466953395	 -1.501326344	 0.667206785
H	 -3.592186280	 -2.544926487	 0.898604544
C	 -3.297985380	 -0.579589105	 1.636417686
H	 -3.275372783	 -0.836383192	 2.684988245
N	 -3.139965958	 0.749115661	 1.350531724
H	 -2.963170035	 1.420458360	 2.078764475
C	 -3.106132393	 1.255347994	 0.063655668
O	 -2.896413862	 2.429005246	 -0.179850302
