16
0  1  0  1  0  1   4  12 -2.67768 -2.38900 -3.24280 -3.53148 -3.27899 -3.42745  2.19240  2.18938  2.18349 -2.55440 -3.92349  7.52527 -0.85379 -5.30239
C	 0.266306863	 0.536366937	 0.006558668
H	 0.741858341	 1.487057946	 -0.000023553
C	 -0.298183737	 -0.536932486	 -0.004553154
H	 -0.786104616	 -1.480034738	 -0.024482741
N	 -3.342196415	 0.296297303	 -0.895526594
H	 -3.304830943	 0.622854891	 -1.851317150
C	 -3.479333748	 -1.088354443	 -0.725481450
O	 -3.596971624	 -1.823149134	 -1.691069222
C	 -3.466953395	 -1.501326344	 0.667206785
H	 -3.592186280	 -2.544926487	 0.898604544
C	 -3.297985380	 -0.579589105	 1.636417686
H	 -3.275372783	 -0.836383192	 2.684988245
N	 -3.139965958	 0.749115661	 1.350531724
H	 -2.963170035	 1.420458360	 2.078764475
C	 -3.106132393	 1.255347994	 0.063655668
O	 -2.896413862	 2.429005246	 -0.179850302
