16
0  1  0  1  0  1   4  12 -2.06030 -1.98675 -2.19844 -2.27199 -2.21148 -2.24548 -0.62965 -0.63085 -0.62852 -1.96186 -1.09712  1.07002 -0.18292 -1.75184
C	 -3.807565353	 0.605838125	 -1.801158183
H	 -3.755858790	 1.666936429	 -1.763704891
C	 -3.854505598	 -0.605911741	 -1.815428319
H	 -3.906904986	 -1.666622689	 -1.822668415
N	 0.056602857	 0.296297303	 0.895526594
H	 0.019237385	 0.622854891	 1.851317150
C	 0.193740190	 -1.088354443	 0.725481450
O	 0.311378066	 -1.823149134	 1.691069222
C	 0.181359837	 -1.501326344	 -0.667206785
H	 0.306592722	 -2.544926487	 -0.898604544
C	 0.012391822	 -0.579589105	 -1.636417686
H	 -0.010220775	 -0.836383192	 -2.684988245
N	 -0.145627600	 0.749115661	 -1.350531724
H	 -0.322423523	 1.420458360	 -2.078764475
C	 -0.179461165	 1.255347994	 -0.063655668
O	 -0.389179696	 2.429005246	 0.179850302
