16
0  1  0  1  0  1   4  12 26.72844 28.60462 24.34320 22.46701 24.24754 23.18883 46.83504 46.83431 46.76476 26.01301 -45.08834 102.16575 -9.58952 -21.47488
C	 -1.006094362	 0.605925378	 0.017225706
H	 -1.064383147	 1.667023682	 0.043278257
C	 -0.970265940	 -0.605824488	 -0.016290670
H	 -0.937796139	 -1.666535436	 -0.058049823
N	 -3.342196415	 0.296297303	 -0.895526594
H	 -3.304830943	 0.622854891	 -1.851317150
C	 -3.479333748	 -1.088354443	 -0.725481450
O	 -3.596971624	 -1.823149134	 -1.691069222
C	 -3.466953395	 -1.501326344	 0.667206785
H	 -3.592186280	 -2.544926487	 0.898604544
C	 -3.297985380	 -0.579589105	 1.636417686
H	 -3.275372783	 -0.836383192	 2.684988245
N	 -3.139965958	 0.749115661	 1.350531724
H	 -2.963170035	 1.420458360	 2.078764475
C	 -3.106132393	 1.255347994	 0.063655668
O	 -2.896413862	 2.429005246	 -0.179850302
