16
0  1  0  1  0  1   4  12 -3.54638 -3.37664 -3.89248 -4.06222 -3.91706 -4.00053 -0.47265 -0.47455 -0.47348 -3.33349 -2.71004  3.41168 -0.40568 -3.62946
C	 0.717195945	 -0.170974273	 3.451116806
H	 1.713014215	 -0.524960126	 3.336898076
C	 -0.427408140	 0.215483413	 3.557308648
H	 -1.432290695	 0.544183755	 3.657672814
N	 -0.055453570	 -0.947990903	 0.010010276
H	 -0.057316094	 -1.957713300	 0.055052867
C	 -1.313959706	 -0.335144979	 -0.064586221
O	 -2.328896643	 -1.007900867	 -0.123102733
C	 -1.248358774	 1.116051909	 -0.066508604
H	 -2.164349372	 1.675332979	 -0.147102440
C	 -0.053080103	 1.731427485	 0.034195411
H	 0.048110542	 2.806429864	 0.043419678
N	 1.115926282	 1.027591073	 0.135168930
H	 1.996655154	 1.497279762	 0.261620291
C	 1.175346998	 -0.353804698	 0.176166157
O	 2.214631457	 -0.966465421	 0.335172500
