16
0  1  0  1  0  1   4  12 38.37034 40.14322 36.91494 35.14207 36.83774 35.82716 55.87280 55.87685 55.80510 34.28799 -39.32863 112.72743 -17.82546 -21.28535
C	 -1.026132451	 0.513089147	 0.006440904
H	 -1.611679277	 1.400274312	 -0.000141317
C	 -0.378873185	 -0.512423764	 -0.004670918
H	 0.193916884	 -1.406526767	 -0.024600505
N	 -3.342196415	 0.296297303	 -0.895526594
H	 -3.304830943	 0.622854891	 -1.851317150
C	 -3.479333748	 -1.088354443	 -0.725481450
O	 -3.596971624	 -1.823149134	 -1.691069222
C	 -3.466953395	 -1.501326344	 0.667206785
H	 -3.592186280	 -2.544926487	 0.898604544
C	 -3.297985380	 -0.579589105	 1.636417686
H	 -3.275372783	 -0.836383192	 2.684988245
N	 -3.139965958	 0.749115661	 1.350531724
H	 -2.963170035	 1.420458360	 2.078764475
C	 -3.106132393	 1.255347994	 0.063655668
O	 -2.896413862	 2.429005246	 -0.179850302
