16
0  1  0  1  0  1   4  12 -3.70349 -3.46470 -4.15760 -4.39640 -4.18730 -4.30774  0.33944  0.33845  0.33949 -3.43066 -3.82413  5.67331 -0.61777 -4.66205
C	 -0.021920397	 0.605859938	 0.017366213
H	 -0.080209182	 1.666958242	 0.043418764
C	 0.013908025	 -0.605889928	 -0.016150163
H	 0.046377826	 -1.666600876	 -0.057909316
N	 -3.342196415	 0.296297303	 -0.895526594
H	 -3.304830943	 0.622854891	 -1.851317150
C	 -3.479333748	 -1.088354443	 -0.725481450
O	 -3.596971624	 -1.823149134	 -1.691069222
C	 -3.466953395	 -1.501326344	 0.667206785
H	 -3.592186280	 -2.544926487	 0.898604544
C	 -3.297985380	 -0.579589105	 1.636417686
H	 -3.275372783	 -0.836383192	 2.684988245
N	 -3.139965958	 0.749115661	 1.350531724
H	 -2.963170035	 1.420458360	 2.078764475
C	 -3.106132393	 1.255347994	 0.063655668
O	 -2.896413862	 2.429005246	 -0.179850302
