16
0  1  0  1  0  1   4  12 -3.20793 -3.08633 -3.47714 -3.59874 -3.49717 -3.55545 -0.85133 -0.85378 -0.85274 -3.04342 -1.98764  2.06852 -0.27312 -2.85119
C	 0.304415379	 0.605838125	 -0.005918274
H	 0.252708815	 1.666936429	 -0.043371566
C	 0.351355623	 -0.605911741	 0.008351862
H	 0.403755011	 -1.666622689	 0.015591958
N	 -3.342196415	 0.296297303	 -0.895526594
H	 -3.304830943	 0.622854891	 -1.851317150
C	 -3.479333748	 -1.088354443	 -0.725481450
O	 -3.596971624	 -1.823149134	 -1.691069222
C	 -3.466953395	 -1.501326344	 0.667206785
H	 -3.592186280	 -2.544926487	 0.898604544
C	 -3.297985380	 -0.579589105	 1.636417686
H	 -3.275372783	 -0.836383192	 2.684988245
N	 -3.139965958	 0.749115661	 1.350531724
H	 -2.963170035	 1.420458360	 2.078764475
C	 -3.106132393	 1.255347994	 0.063655668
O	 -2.896413862	 2.429005246	 -0.179850302
