16
0  1  0  1  0  1   4  12 -1.57691 -1.27464 -2.19560 -2.49787 -2.22667 -2.38752  3.42778  3.42464  3.41499 -1.29198 -4.24468  9.18881 -1.03862 -5.19748
C	 -3.284286456	 -0.942139168	 -0.006535115
H	 -3.759837934	 0.008551841	 0.000047106
C	 -2.719795856	 -2.015438591	 0.004576707
H	 -2.231874977	 -2.958540843	 0.024506294
N	 0.056602857	 0.296297303	 0.895526594
H	 0.019237385	 0.622854891	 1.851317150
C	 0.193740190	 -1.088354443	 0.725481450
O	 0.311378066	 -1.823149134	 1.691069222
C	 0.181359837	 -1.501326344	 -0.667206785
H	 0.306592722	 -2.544926487	 -0.898604544
C	 0.012391822	 -0.579589105	 -1.636417686
H	 -0.010220775	 -0.836383192	 -2.684988245
N	 -0.145627600	 0.749115661	 -1.350531724
H	 -0.322423523	 1.420458360	 -2.078764475
C	 -0.179461165	 1.255347994	 -0.063655668
O	 -0.389179696	 2.429005246	 0.179850302
