16
0  1  0  1  0  1   4  12  2.15972  2.77661  1.05767  0.44078  1.01078  0.67442 10.96453 10.96104 10.94486  2.59855 -11.15638 25.72123 -2.88341 -9.08288
C	 -2.950780794	 -0.777837497	 -0.006488010
H	 -3.426332272	 0.172853512	 0.000094211
C	 -2.386290194	 -1.851136920	 0.004623812
H	 -1.898369315	 -2.794239172	 0.024553399
N	 0.056602857	 0.296297303	 0.895526594
H	 0.019237385	 0.622854891	 1.851317150
C	 0.193740190	 -1.088354443	 0.725481450
O	 0.311378066	 -1.823149134	 1.691069222
C	 0.181359837	 -1.501326344	 -0.667206785
H	 0.306592722	 -2.544926487	 -0.898604544
C	 0.012391822	 -0.579589105	 -1.636417686
H	 -0.010220775	 -0.836383192	 -2.684988245
N	 -0.145627600	 0.749115661	 -1.350531724
H	 -0.322423523	 1.420458360	 -2.078764475
C	 -0.179461165	 1.255347994	 -0.063655668
O	 -0.389179696	 2.429005246	 0.179850302
