16
0  1  0  1  0  1   4  12 -2.66870 -2.56828 -2.68037 -2.78080 -2.69307 -2.74232 -1.27709 -1.27566 -1.27220 -2.53208 -2.06349  1.83314 -0.34808 -1.95366
C	 -3.667751359	 2.237950058	 -0.006605774
H	 -3.082204533	 3.125135224	 -0.000023553
C	 -4.315010625	 1.212437147	 0.004506048
H	 -4.887800694	 0.318334144	 0.024435635
N	 0.056602857	 0.296297303	 0.895526594
H	 0.019237385	 0.622854891	 1.851317150
C	 0.193740190	 -1.088354443	 0.725481450
O	 0.311378066	 -1.823149134	 1.691069222
C	 0.181359837	 -1.501326344	 -0.667206785
H	 0.306592722	 -2.544926487	 -0.898604544
C	 0.012391822	 -0.579589105	 -1.636417686
H	 -0.010220775	 -0.836383192	 -2.684988245
N	 -0.145627600	 0.749115661	 -1.350531724
H	 -0.322423523	 1.420458360	 -2.078764475
C	 -0.179461165	 1.255347994	 -0.063655668
O	 -0.389179696	 2.429005246	 0.179850302
