16
0  1  0  1  0  1   4  12 26.66151 28.53484 24.28478 22.41146 24.18984 23.13228 46.69581 46.69509 46.62532 25.94191 -45.07385 102.13471 -9.67924 -21.43971
C	 0.655802449	 -0.179710469	 2.302836069
H	 1.651620719	 -0.533696322	 2.188617339
C	 -0.488801636	 0.206747217	 2.409027911
H	 -1.493684191	 0.535447559	 2.509392077
N	 -0.055453570	 -0.947990903	 0.010010276
H	 -0.057316094	 -1.957713300	 0.055052867
C	 -1.313959706	 -0.335144979	 -0.064586221
O	 -2.328896643	 -1.007900867	 -0.123102733
C	 -1.248358774	 1.116051909	 -0.066508604
H	 -2.164349372	 1.675332979	 -0.147102440
C	 -0.053080103	 1.731427485	 0.034195411
H	 0.048110542	 2.806429864	 0.043419678
N	 1.115926282	 1.027591073	 0.135168930
H	 1.996655154	 1.497279762	 0.261620291
C	 1.175346998	 -0.353804698	 0.176166157
O	 2.214631457	 -0.966465421	 0.335172500
