16
0  1  0  1  0  1   4  12 -3.54290 -3.37333 -3.89100 -4.06057 -3.91543 -3.99888 -0.46829 -0.47014 -0.46905 -3.33033 -2.71711  3.42473 -0.40609 -3.63186
C	 0.140165777	 0.605849031	 -0.005941873
H	 0.088459213	 1.666947335	 -0.043395165
C	 0.187106021	 -0.605900835	 0.008328263
H	 0.239505409	 -1.666611783	 0.015568359
N	 -3.342196415	 0.296297303	 -0.895526594
H	 -3.304830943	 0.622854891	 -1.851317150
C	 -3.479333748	 -1.088354443	 -0.725481450
O	 -3.596971624	 -1.823149134	 -1.691069222
C	 -3.466953395	 -1.501326344	 0.667206785
H	 -3.592186280	 -2.544926487	 0.898604544
C	 -3.297985380	 -0.579589105	 1.636417686
H	 -3.275372783	 -0.836383192	 2.684988245
N	 -3.139965958	 0.749115661	 1.350531724
H	 -2.963170035	 1.420458360	 2.078764475
C	 -3.106132393	 1.255347994	 0.063655668
O	 -2.896413862	 2.429005246	 -0.179850302
