16
0  1  0  1  0  1   4  12 -3.54385 -3.37288 -3.89289 -4.06385 -3.91763 -4.00177 -0.44751 -0.44950 -0.44856 -3.33036 -2.71440  3.43964 -0.40675 -3.64886
C	 0.142108597	 0.605849031	 0.017389631
H	 0.083819812	 1.666947335	 0.043442182
C	 0.177937019	 -0.605900835	 -0.016126745
H	 0.210406820	 -1.666611783	 -0.057885898
N	 -3.342196415	 0.296297303	 -0.895526594
H	 -3.304830943	 0.622854891	 -1.851317150
C	 -3.479333748	 -1.088354443	 -0.725481450
O	 -3.596971624	 -1.823149134	 -1.691069222
C	 -3.466953395	 -1.501326344	 0.667206785
H	 -3.592186280	 -2.544926487	 0.898604544
C	 -3.297985380	 -0.579589105	 1.636417686
H	 -3.275372783	 -0.836383192	 2.684988245
N	 -3.139965958	 0.749115661	 1.350531724
H	 -2.963170035	 1.420458360	 2.078764475
C	 -3.106132393	 1.255347994	 0.063655668
O	 -2.896413862	 2.429005246	 -0.179850302
