16
0  1  0  1  0  1   4  12 -3.48317 -3.14823 -4.07731 -4.41225 -4.11261 -4.28546  1.80125  1.80144  1.80234 -3.13959 -5.53329  9.32143 -0.95327 -5.97445
C	 -0.185949391	 0.605870845	 0.017342795
H	 -0.244238176	 1.666969149	 0.043395346
C	 -0.150120969	 -0.605879021	 -0.016173581
H	 -0.117651168	 -1.666589969	 -0.057932734
N	 -3.342196415	 0.296297303	 -0.895526594
H	 -3.304830943	 0.622854891	 -1.851317150
C	 -3.479333748	 -1.088354443	 -0.725481450
O	 -3.596971624	 -1.823149134	 -1.691069222
C	 -3.466953395	 -1.501326344	 0.667206785
H	 -3.592186280	 -2.544926487	 0.898604544
C	 -3.297985380	 -0.579589105	 1.636417686
H	 -3.275372783	 -0.836383192	 2.684988245
N	 -3.139965958	 0.749115661	 1.350531724
H	 -2.963170035	 1.420458360	 2.078764475
C	 -3.106132393	 1.255347994	 0.063655668
O	 -2.896413862	 2.429005246	 -0.179850302
