16
0  1  0  1  0  1   4  12 -2.98998 -2.72766 -3.30851 -3.57083 -3.33818 -3.47279  1.08212  1.08257  1.08231 -2.70076 -4.45225  6.88161 -0.56988 -4.56024
C	 -2.985622609	 0.605870845	 1.543314145
H	 -2.927333825	 1.666969149	 1.517261594
C	 -3.021451032	 -0.605879021	 1.576830521
H	 -3.053920833	 -1.666589969	 1.618589674
N	 0.056602857	 0.296297303	 0.895526594
H	 0.019237385	 0.622854891	 1.851317150
C	 0.193740190	 -1.088354443	 0.725481450
O	 0.311378066	 -1.823149134	 1.691069222
C	 0.181359837	 -1.501326344	 -0.667206785
H	 0.306592722	 -2.544926487	 -0.898604544
C	 0.012391822	 -0.579589105	 -1.636417686
H	 -0.010220775	 -0.836383192	 -2.684988245
N	 -0.145627600	 0.749115661	 -1.350531724
H	 -0.322423523	 1.420458360	 -2.078764475
C	 -0.179461165	 1.255347994	 -0.063655668
O	 -0.389179696	 2.429005246	 0.179850302
