16
0  1  0  1  0  1   4  12 -2.04492 -1.89817 -2.40160 -2.54835 -2.42158 -2.49723  0.79442  0.79229  0.78670 -1.90296 -1.69906  3.21348 -0.39623 -3.02114
C	 -3.617792118	 -1.106440839	 -0.006582221
H	 -4.093343596	 -0.155749830	 0.000000000
C	 -3.053301518	 -2.179740262	 0.004529601
H	 -2.565380639	 -3.122842514	 0.024459188
N	 0.056602857	 0.296297303	 0.895526594
H	 0.019237385	 0.622854891	 1.851317150
C	 0.193740190	 -1.088354443	 0.725481450
O	 0.311378066	 -1.823149134	 1.691069222
C	 0.181359837	 -1.501326344	 -0.667206785
H	 0.306592722	 -2.544926487	 -0.898604544
C	 0.012391822	 -0.579589105	 -1.636417686
H	 -0.010220775	 -0.836383192	 -2.684988245
N	 -0.145627600	 0.749115661	 -1.350531724
H	 -0.322423523	 1.420458360	 -2.078764475
C	 -0.179461165	 1.255347994	 -0.063655668
O	 -0.389179696	 2.429005246	 0.179850302
