16
0  1  0  1  0  1   4  12 -2.94915 -2.71107 -2.96411 -3.20219 -2.98488 -3.11280 -0.15974 -0.15888 -0.16429 -2.60179 -4.59784  6.66731 -0.99365 -3.67760
C	 -3.287667941	 2.073692010	 -0.006558668
H	 -2.702121115	 2.960877176	 0.000023553
C	 -3.934927207	 1.048179099	 0.004553154
H	 -4.507717276	 0.154076096	 0.024482741
N	 0.056602857	 0.296297303	 0.895526594
H	 0.019237385	 0.622854891	 1.851317150
C	 0.193740190	 -1.088354443	 0.725481450
O	 0.311378066	 -1.823149134	 1.691069222
C	 0.181359837	 -1.501326344	 -0.667206785
H	 0.306592722	 -2.544926487	 -0.898604544
C	 0.012391822	 -0.579589105	 -1.636417686
H	 -0.010220775	 -0.836383192	 -2.684988245
N	 -0.145627600	 0.749115661	 -1.350531724
H	 -0.322423523	 1.420458360	 -2.078764475
C	 -0.179461165	 1.255347994	 -0.063655668
O	 -0.389179696	 2.429005246	 0.179850302
