16
0  1  0  1  0  1   4  12 26.91589 28.54857 24.95020 23.31752 24.86283 23.95452 45.82706 45.82762 45.79223 25.82107 -36.91787 90.38468 -7.73990 -19.90584
C	 -0.593999696	 0.536421920	 0.006440904
H	 -0.118448218	 1.487112929	 -0.000141317
C	 -1.158490296	 -0.536877503	 -0.004670918
H	 -1.646411175	 -1.479979755	 -0.024600505
N	 -3.342196415	 0.296297303	 -0.895526594
H	 -3.304830943	 0.622854891	 -1.851317150
C	 -3.479333748	 -1.088354443	 -0.725481450
O	 -3.596971624	 -1.823149134	 -1.691069222
C	 -3.466953395	 -1.501326344	 0.667206785
H	 -3.592186280	 -2.544926487	 0.898604544
C	 -3.297985380	 -0.579589105	 1.636417686
H	 -3.275372783	 -0.836383192	 2.684988245
N	 -3.139965958	 0.749115661	 1.350531724
H	 -2.963170035	 1.420458360	 2.078764475
C	 -3.106132393	 1.255347994	 0.063655668
O	 -2.896413862	 2.429005246	 -0.179850302
