16
0  1  0  1  0  1   4  12  4.21701  5.15870  2.86443  1.92274  2.80270  2.28616 15.98891 15.99041 15.97190  4.69499 -18.83761 39.97395 -3.72255 -12.71879
C	 0.673343448	 -0.177214413	 2.630916280
H	 1.669161718	 -0.531200266	 2.516697550
C	 -0.471260637	 0.209243273	 2.737108122
H	 -1.476143192	 0.537943615	 2.837472288
N	 -0.055453570	 -0.947990903	 0.010010276
H	 -0.057316094	 -1.957713300	 0.055052867
C	 -1.313959706	 -0.335144979	 -0.064586221
O	 -2.328896643	 -1.007900867	 -0.123102733
C	 -1.248358774	 1.116051909	 -0.066508604
H	 -2.164349372	 1.675332979	 -0.147102440
C	 -0.053080103	 1.731427485	 0.034195411
H	 0.048110542	 2.806429864	 0.043419678
N	 1.115926282	 1.027591073	 0.135168930
H	 1.996655154	 1.497279762	 0.261620291
C	 1.175346998	 -0.353804698	 0.176166157
O	 2.214631457	 -0.966465421	 0.335172500
