16
0  1  0  1  0  1   4  12 -3.70432 -3.46712 -4.15738 -4.39459 -4.18681 -4.30642  0.31276  0.31192  0.31313 -3.43204 -3.82589  5.65193 -0.61654 -4.64153
C	 -0.024083826	 0.605859938	 -0.005965472
H	 -0.075790390	 1.666958242	 -0.043418764
C	 0.022856418	 -0.605889928	 0.008304664
H	 0.075255806	 -1.666600876	 0.015544760
N	 -3.342196415	 0.296297303	 -0.895526594
H	 -3.304830943	 0.622854891	 -1.851317150
C	 -3.479333748	 -1.088354443	 -0.725481450
O	 -3.596971624	 -1.823149134	 -1.691069222
C	 -3.466953395	 -1.501326344	 0.667206785
H	 -3.592186280	 -2.544926487	 0.898604544
C	 -3.297985380	 -0.579589105	 1.636417686
H	 -3.275372783	 -0.836383192	 2.684988245
N	 -3.139965958	 0.749115661	 1.350531724
H	 -2.963170035	 1.420458360	 2.078764475
C	 -3.106132393	 1.255347994	 0.063655668
O	 -2.896413862	 2.429005246	 -0.179850302
