16
0  1  0  1  0  1   4  12 -1.79151 -1.37994 -2.51070 -2.92227 -2.55492 -2.77088  4.60161  4.59817  4.58966 -1.62955 -6.00902 12.57657 -1.32285 -6.87424
C	 0.094245551	 0.536377933	 0.006535115
H	 0.569797029	 1.487068942	 -0.000047106
C	 -0.470245049	 -0.536921490	 -0.004576707
H	 -0.958165928	 -1.480023742	 -0.024506294
N	 -3.342196415	 0.296297303	 -0.895526594
H	 -3.304830943	 0.622854891	 -1.851317150
C	 -3.479333748	 -1.088354443	 -0.725481450
O	 -3.596971624	 -1.823149134	 -1.691069222
C	 -3.466953395	 -1.501326344	 0.667206785
H	 -3.592186280	 -2.544926487	 0.898604544
C	 -3.297985380	 -0.579589105	 1.636417686
H	 -3.275372783	 -0.836383192	 2.684988245
N	 -3.139965958	 0.749115661	 1.350531724
H	 -2.963170035	 1.420458360	 2.078764475
C	 -3.106132393	 1.255347994	 0.063655668
O	 -2.896413862	 2.429005246	 -0.179850302
