16
0  1  0  1  0  1   4  12 -2.82430 -2.65418 -3.07598 -3.24609 -3.10167 -3.18581  0.21330  0.21443  0.21290 -2.71936 -2.17749  3.51965 -0.59448 -3.46704
C	 0.080689968	 0.513024255	 0.006582221
H	 -0.504856858	 1.400209420	 0.000000000
C	 0.727949234	 -0.512488656	 -0.004529601
H	 1.300739303	 -1.406591659	 -0.024459188
N	 -3.342196415	 0.296297303	 -0.895526594
H	 -3.304830943	 0.622854891	 -1.851317150
C	 -3.479333748	 -1.088354443	 -0.725481450
O	 -3.596971624	 -1.823149134	 -1.691069222
C	 -3.466953395	 -1.501326344	 0.667206785
H	 -3.592186280	 -2.544926487	 0.898604544
C	 -3.297985380	 -0.579589105	 1.636417686
H	 -3.275372783	 -0.836383192	 2.684988245
N	 -3.139965958	 0.749115661	 1.350531724
H	 -2.963170035	 1.420458360	 2.078764475
C	 -3.106132393	 1.255347994	 0.063655668
O	 -2.896413862	 2.429005246	 -0.179850302
