16
0  1  0  1  0  1   4  12  3.89723  4.68714  3.09525  2.30534  3.03925  2.60679 13.82317 13.82424 13.80488  4.50320 -16.20103 33.32477 -2.23053 -10.39001
C	 -2.511539031	 0.605903565	 1.296964881
H	 -2.453250247	 1.667001869	 1.270912330
C	 -2.547367454	 -0.605846301	 1.330481257
H	 -2.579837255	 -1.666557249	 1.372240410
N	 0.056602857	 0.296297303	 0.895526594
H	 0.019237385	 0.622854891	 1.851317150
C	 0.193740190	 -1.088354443	 0.725481450
O	 0.311378066	 -1.823149134	 1.691069222
C	 0.181359837	 -1.501326344	 -0.667206785
H	 0.306592722	 -2.544926487	 -0.898604544
C	 0.012391822	 -0.579589105	 -1.636417686
H	 -0.010220775	 -0.836383192	 -2.684988245
N	 -0.145627600	 0.749115661	 -1.350531724
H	 -0.322423523	 1.420458360	 -2.078764475
C	 -0.179461165	 1.255347994	 -0.063655668
O	 -0.389179696	 2.429005246	 0.179850302
