16
0  1  0  1  0  1   4  12 -3.20962 -3.08789 -3.47728 -3.59902 -3.49748 -3.55574 -0.85376 -0.85627 -0.85523 -3.04468 -1.98283  2.05953 -0.27259 -2.84879
C	 0.725966445	 -0.169726245	 3.615156912
H	 1.721784715	 -0.523712098	 3.500938182
C	 -0.418637640	 0.216731441	 3.721348754
H	 -1.423520195	 0.545431783	 3.821712920
N	 -0.055453570	 -0.947990903	 0.010010276
H	 -0.057316094	 -1.957713300	 0.055052867
C	 -1.313959706	 -0.335144979	 -0.064586221
O	 -2.328896643	 -1.007900867	 -0.123102733
C	 -1.248358774	 1.116051909	 -0.066508604
H	 -2.164349372	 1.675332979	 -0.147102440
C	 -0.053080103	 1.731427485	 0.034195411
H	 0.048110542	 2.806429864	 0.043419678
N	 1.115926282	 1.027591073	 0.135168930
H	 1.996655154	 1.497279762	 0.261620291
C	 1.175346998	 -0.353804698	 0.176166157
O	 2.214631457	 -0.966465421	 0.335172500
