16
0  1  0  1  0  1   4  12 -2.49567 -2.34345 -2.74790 -2.90012 -2.76975 -2.84475  0.13641  0.13490  0.13577 -2.33360 -2.21279  3.30897 -0.40054 -3.02923
C	 -3.459288292	 0.605859938	 -1.636831307
H	 -3.407581729	 1.666958242	 -1.599378015
C	 -3.506228537	 -0.605889928	 -1.651101443
H	 -3.558627925	 -1.666600876	 -1.658341539
N	 0.056602857	 0.296297303	 0.895526594
H	 0.019237385	 0.622854891	 1.851317150
C	 0.193740190	 -1.088354443	 0.725481450
O	 0.311378066	 -1.823149134	 1.691069222
C	 0.181359837	 -1.501326344	 -0.667206785
H	 0.306592722	 -2.544926487	 -0.898604544
C	 0.012391822	 -0.579589105	 -1.636417686
H	 -0.010220775	 -0.836383192	 -2.684988245
N	 -0.145627600	 0.749115661	 -1.350531724
H	 -0.322423523	 1.420458360	 -2.078764475
C	 -0.179461165	 1.255347994	 -0.063655668
O	 -0.389179696	 2.429005246	 0.179850302
