16
0  1  0  1  0  1   4  12 19.77889 21.19411 18.07492 16.65970 17.99006 17.20187 35.84641 35.84572 35.80051 20.12013 -36.00441 79.93041 -7.03898 -16.76689
C	 -2.414457109	 0.605925378	 -1.143850679
H	 -2.362750546	 1.667023682	 -1.106397387
C	 -2.461397354	 -0.605824488	 -1.158120815
H	 -2.513796742	 -1.666535436	 -1.165360911
N	 0.056602857	 0.296297303	 0.895526594
H	 0.019237385	 0.622854891	 1.851317150
C	 0.193740190	 -1.088354443	 0.725481450
O	 0.311378066	 -1.823149134	 1.691069222
C	 0.181359837	 -1.501326344	 -0.667206785
H	 0.306592722	 -2.544926487	 -0.898604544
C	 0.012391822	 -0.579589105	 -1.636417686
H	 -0.010220775	 -0.836383192	 -2.684988245
N	 -0.145627600	 0.749115661	 -1.350531724
H	 -0.322423523	 1.420458360	 -2.078764475
C	 -0.179461165	 1.255347994	 -0.063655668
O	 -0.389179696	 2.429005246	 0.179850302
