17
0  1  0  1  0  1   6  11  4.87905  5.72476  2.50973  1.66402  2.39570  1.96360 18.15612 18.15303 18.13147  6.08183 -16.51682 39.72742 -4.36658 -12.76219
C	 0.013116408	 0.666407598	 2.759402377
H	 0.923590411	 1.225893317	 2.600287534
H	 -0.896431090	 1.228811825	 2.916362881
C	 0.013449092	 -0.666279702	 2.759534616
H	 0.924184783	 -1.225362186	 2.600524183
H	 -0.895839002	 -1.229104473	 2.916623767
N	 1.381382191	 -0.000233477	 0.131463739
C	 0.679350788	 -1.140239457	 0.092079660
H	 1.258719604	 -2.054962232	 0.125883611
C	 -0.709722319	 -1.193114069	 0.006664265
H	 -1.214087679	 -2.148561633	 -0.025308510
C	 -1.421613574	 0.000133427	 -0.040816901
H	 -2.500696146	 0.000257571	 -0.109169733
C	 -0.709401197	 1.193175380	 0.006521983
H	 -1.213511626	 2.148747839	 -0.025528309
C	 0.679651666	 1.139956229	 0.091893028
H	 1.259260730	 2.054510898	 0.125502478
