17
0  1  0  1  0  1   6  11 23.02415 24.60551 18.96309 17.38173 18.80138 17.96278 44.99677 44.98857 44.94621 24.94242 -38.22126 93.57270 -9.95358 -20.45543
C	 -0.966364728	 0.000252855	 -0.666344230
H	 -0.641141272	 -0.864831780	 -1.225953906
H	 -1.293003521	 0.863594926	 -1.228624705
C	 -0.966046421	 -0.000144224	 0.666343021
H	 -0.640570379	 -0.865550368	 1.225301509
H	 -1.292412731	 0.862889725	 1.229291506
N	 -3.293248065	 -1.391669444	 0.000003633
C	 -3.338997917	 -0.690167645	 1.140097931
H	 -3.300021408	 -1.269326540	 2.054747860
C	 -3.436912592	 0.698073733	 1.193146978
H	 -3.473464574	 1.202007947	 2.148657828
C	 -3.490746204	 1.409662471	 -0.000011275
H	 -3.568807055	 2.488086240	 -0.000000000
C	 -3.436947936	 0.698058524	 -1.193142496
H	 -3.473491817	 1.201983120	 -2.148651688
C	 -3.339082417	 -0.690176668	 -1.140097781
H	 -3.300218483	 -1.269342074	 -2.054725318
