17
0  1  0  1  0  1   6  11 -1.53676 -1.22943 -2.63005 -2.93739 -2.69437 -2.83757  4.63667  4.63567  4.62927 -1.24442 -3.70763  9.50378 -1.03777 -6.00280
C	 0.017644451	 0.666429769	 3.267737510
H	 0.928118454	 1.225915488	 3.108622667
H	 -0.891903047	 1.228833996	 3.424698014
C	 0.017977135	 -0.666257531	 3.267869749
H	 0.928712826	 -1.225340015	 3.108859316
H	 -0.891310959	 -1.229082302	 3.424958900
N	 1.381382191	 -0.000233477	 0.131463739
C	 0.679350788	 -1.140239457	 0.092079660
H	 1.258719604	 -2.054962232	 0.125883611
C	 -0.709722319	 -1.193114069	 0.006664265
H	 -1.214087679	 -2.148561633	 -0.025308510
C	 -1.421613574	 0.000133427	 -0.040816901
H	 -2.500696146	 0.000257571	 -0.109169733
C	 -0.709401197	 1.193175380	 0.006521983
H	 -1.213511626	 2.148747839	 -0.025528309
C	 0.679651666	 1.139956229	 0.091893028
H	 1.259260730	 2.054510898	 0.125502478
