17
0  1  0  1  0  1   6  11 -0.84049 -0.69017 -1.29822 -1.44855 -1.33536 -1.40315  2.47219  2.47040  2.46483 -0.74201 -1.16184  3.96773 -0.41150 -3.13640
C	 -3.859343773	 0.000322563	 -1.032784393
H	 -4.008473567	 -0.911474436	 -0.472702926
H	 -4.269342998	 0.911318125	 -0.620231989
C	 -3.193066937	 -0.000180471	 -2.186963969
H	 -2.782962871	 -0.912382198	 -2.595619943
H	 -3.040522624	 0.910412008	 -2.748929387
N	 -0.095808556	 -1.391669444	 -0.000003633
C	 -0.050058704	 -0.690167645	 -1.140097931
H	 -0.089035212	 -1.269326540	 -2.054747860
C	 0.047855972	 0.698073733	 -1.193146978
H	 0.084407953	 1.202007947	 -2.148657828
C	 0.101689583	 1.409662471	 0.000011275
H	 0.179750434	 2.488086240	 0.000000000
C	 0.047891316	 0.698058524	 1.193142496
H	 0.084435196	 1.201983120	 2.148651688
C	 -0.049974203	 -0.690176668	 1.140097781
H	 -0.088838138	 -1.269342074	 2.054725318
