17
0  1  0  1  0  1   6  11 13.74120 14.73495 11.63552 10.64176 11.51976 11.00017 28.77796 28.77612 28.74768 15.55894 -22.72417 56.67047 -4.40782 -13.97954
C	 -2.511075652	 1.186422673	 0.666344230
H	 -2.836299108	 0.321338037	 1.225953906
H	 -2.184436859	 2.049764744	 1.228624705
C	 -2.511393958	 1.186025594	 -0.666343021
H	 -2.836870000	 0.320619449	 -1.225301509
H	 -2.185027648	 2.049059542	 -1.229291506
N	 -0.095808556	 -1.391669444	 -0.000003633
C	 -0.050058704	 -0.690167645	 -1.140097931
H	 -0.089035212	 -1.269326540	 -2.054747860
C	 0.047855972	 0.698073733	 -1.193146978
H	 0.084407953	 1.202007947	 -2.148657828
C	 0.101689583	 1.409662471	 0.000011275
H	 0.179750434	 2.488086240	 0.000000000
C	 0.047891316	 0.698058524	 1.193142496
H	 0.084435196	 1.201983120	 2.148651688
C	 -0.049974203	 -0.690176668	 1.140097781
H	 -0.088838138	 -1.269342074	 2.054725318
