17
0  1  0  1  0  1   6  11 -1.28065 -1.20582 -1.60214 -1.67697 -1.63031 -1.65815  0.65636  0.65478  0.65271 -1.31878 -0.28454  1.03207 -0.12731 -1.93900
C	 0.413368784	 0.000369271	 -0.577124625
H	 0.002888903	 -0.911427728	 -0.986315549
H	 0.261087535	 0.911364833	 -1.138470572
C	 1.079779199	 -0.000133763	 0.576977828
H	 1.228633622	 -0.912335490	 1.136466354
H	 1.490183371	 0.910458716	 0.990067788
N	 -3.293248065	 -1.391669444	 0.000003633
C	 -3.338997917	 -0.690167645	 1.140097931
H	 -3.300021408	 -1.269326540	 2.054747860
C	 -3.436912592	 0.698073733	 1.193146978
H	 -3.473464574	 1.202007947	 2.148657828
C	 -3.490746204	 1.409662471	 -0.000011275
H	 -3.568807055	 2.488086240	 -0.000000000
C	 -3.436947936	 0.698058524	 -1.193142496
H	 -3.473491817	 1.201983120	 -2.148651688
C	 -3.339082417	 -0.690176668	 -1.140097781
H	 -3.300218483	 -1.269342074	 -2.054725318
