17
0  1  0  1  0  1   6  11 -0.84778 -0.79753 -1.07690 -1.12715 -1.09733 -1.11527  0.69323  0.69101  0.68934 -0.88398 -0.06452  0.75349 -0.10706 -1.46590
C	 -3.997569974	 -1.863710773	 0.666344230
H	 -3.410996431	 -2.577904866	 1.225953906
H	 -4.581926743	 -1.149162245	 1.228624705
C	 -3.997385246	 -1.864184974	 -0.666343021
H	 -3.410659561	 -2.578758567	 -1.225301509
H	 -4.581611415	 -1.150026485	 -1.229291506
N	 -0.095808556	 -1.391669444	 -0.000003633
C	 -0.050058704	 -0.690167645	 -1.140097931
H	 -0.089035212	 -1.269326540	 -2.054747860
C	 0.047855972	 0.698073733	 -1.193146978
H	 0.084407953	 1.202007947	 -2.148657828
C	 0.101689583	 1.409662471	 0.000011275
H	 0.179750434	 2.488086240	 0.000000000
C	 0.047891316	 0.698058524	 1.193142496
H	 0.084435196	 1.201983120	 2.148651688
C	 -0.049974203	 -0.690176668	 1.140097781
H	 -0.088838138	 -1.269342074	 2.054725318
