17
0  1  0  1  0  1   6  11 -0.49752 -0.16306 -1.34799 -1.68246 -1.41267 -1.57183  5.46441  5.46259  5.45503 -0.23842 -3.64981 10.12300 -0.88148 -5.83013
C	 -0.338537278	 0.000306993	 -0.577124537
H	 -0.749017159	 -0.911490006	 -0.986315461
H	 -0.490818527	 0.911302555	 -1.138470484
C	 0.327873137	 -0.000196041	 0.576977916
H	 0.476727560	 -0.912397768	 1.136466442
H	 0.738277309	 0.910396438	 0.990067876
N	 -3.293248065	 -1.391669444	 0.000003633
C	 -3.338997917	 -0.690167645	 1.140097931
H	 -3.300021408	 -1.269326540	 2.054747860
C	 -3.436912592	 0.698073733	 1.193146978
H	 -3.473464574	 1.202007947	 2.148657828
C	 -3.490746204	 1.409662471	 -0.000011275
H	 -3.568807055	 2.488086240	 -0.000000000
C	 -3.436947936	 0.698058524	 -1.193142496
H	 -3.473491817	 1.201983120	 -2.148651688
C	 -3.339082417	 -0.690176668	 -1.140097781
H	 -3.300218483	 -1.269342074	 -2.054725318
