17
0  1  0  1  0  1   6  11 27.76932 29.27000 25.20534 23.70465 25.06661 24.25895 47.23788 47.23615 47.18808 28.29810 -33.53596 88.33396 -7.73608 -18.76382
C	 -1.090443341	 0.000244716	 -0.577124450
H	 -1.500923222	 -0.911552283	 -0.986315374
H	 -1.242724590	 0.911240278	 -1.138470397
C	 -0.424032926	 -0.000258318	 0.576978003
H	 -0.275178503	 -0.912460045	 1.136466529
H	 -0.013628754	 0.910334161	 0.990067963
N	 -3.293248065	 -1.391669444	 0.000003633
C	 -3.338997917	 -0.690167645	 1.140097931
H	 -3.300021408	 -1.269326540	 2.054747860
C	 -3.436912592	 0.698073733	 1.193146978
H	 -3.473464574	 1.202007947	 2.148657828
C	 -3.490746204	 1.409662471	 -0.000011275
H	 -3.568807055	 2.488086240	 -0.000000000
C	 -3.436947936	 0.698058524	 -1.193142496
H	 -3.473491817	 1.201983120	 -2.148651688
C	 -3.339082417	 -0.690176668	 -1.140097781
H	 -3.300218483	 -1.269342074	 -2.054725318
