17
0  1  0  1  0  1   6  11 -1.46029 -1.35207 -1.86589 -1.97410 -1.90067 -1.94423  1.08217  1.08092  1.07830 -1.47599 -0.58064  1.84205 -0.19914 -2.53826
C	 0.891579063	 0.000353701	 -0.577017458
H	 1.040708858	 -0.911443298	 -1.137098925
H	 1.301578289	 0.911349263	 -0.989569862
C	 0.225302227	 -0.000149333	 0.577162117
H	 -0.184801838	 -0.912351060	 0.985818092
H	 0.072757914	 0.910443146	 1.139127536
N	 -3.293248065	 -1.391669444	 0.000003633
C	 -3.338997917	 -0.690167645	 1.140097931
H	 -3.300021408	 -1.269326540	 2.054747860
C	 -3.436912592	 0.698073733	 1.193146978
H	 -3.473464574	 1.202007947	 2.148657828
C	 -3.490746204	 1.409662471	 -0.000011275
H	 -3.568807055	 2.488086240	 -0.000000000
C	 -3.436947936	 0.698058524	 -1.193142496
H	 -3.473491817	 1.201983120	 -2.148651688
C	 -3.339082417	 -0.690176668	 -1.140097781
H	 -3.300218483	 -1.269342074	 -2.054725318
