17
0  1  0  1  0  1   6  11 -0.73939 -0.69251 -0.95931 -1.00619 -0.97709 -0.99527  0.66858  0.66689  0.66368 -0.75842 -0.03567  0.69549 -0.08900 -1.32925
C	 -3.749329305	 0.000369271	 2.441105767
H	 -3.338849423	 -0.911427728	 2.850296691
H	 -3.597048055	 0.911364833	 3.002451714
C	 -4.415739720	 -0.000133763	 1.287003313
H	 -4.564594142	 -0.912335490	 0.727514787
H	 -4.826143892	 0.910458716	 0.873913354
N	 -0.095808556	 -1.391669444	 -0.000003633
C	 -0.050058704	 -0.690167645	 -1.140097931
H	 -0.089035212	 -1.269326540	 -2.054747860
C	 0.047855972	 0.698073733	 -1.193146978
H	 0.084407953	 1.202007947	 -2.148657828
C	 0.101689583	 1.409662471	 0.000011275
H	 0.179750434	 2.488086240	 0.000000000
C	 0.047891316	 0.698058524	 1.193142496
H	 0.084435196	 1.201983120	 2.148651688
C	 -0.049974203	 -0.690176668	 1.140097781
H	 -0.088838138	 -1.269342074	 2.054725318
