17
0  1  0  1  0  1   6  11 -0.40363 -0.18278 -1.00186 -1.22271 -1.04899 -1.15252  4.05056  4.04879  4.04143 -0.19594 -2.30195  7.04212 -0.71397 -4.22214
C	 -3.673761800	 0.000306993	 -0.948057955
H	 -3.822891594	 -0.911490006	 -0.387976488
H	 -4.083761025	 0.911302555	 -0.535505551
C	 -3.007484964	 -0.000196041	 -2.102237531
H	 -2.597380898	 -0.912397768	 -2.510893505
H	 -2.854940651	 0.910396438	 -2.664202949
N	 -0.095808556	 -1.391669444	 -0.000003633
C	 -0.050058704	 -0.690167645	 -1.140097931
H	 -0.089035212	 -1.269326540	 -2.054747860
C	 0.047855972	 0.698073733	 -1.193146978
H	 0.084407953	 1.202007947	 -2.148657828
C	 0.101689583	 1.409662471	 0.000011275
H	 0.179750434	 2.488086240	 0.000000000
C	 0.047891316	 0.698058524	 1.193142496
H	 0.084435196	 1.201983120	 2.148651688
C	 -0.049974203	 -0.690176668	 1.140097781
H	 -0.088838138	 -1.269342074	 2.054725318
