17
0  1  0  1  0  1   6  11 -1.51847 -1.37488 -2.10233 -2.24592 -2.14455 -2.20469  1.94203  1.94246  1.93883 -1.46666 -0.79942  3.02825 -0.33558 -3.35991
C	 0.245008534	 0.000361969	 -0.666344230
H	 0.570231990	 -0.864722666	 -1.225953906
H	 -0.081630259	 0.863704040	 -1.228624705
C	 0.245326841	 -0.000035110	 0.666343021
H	 0.570802883	 -0.865441254	 1.225301509
H	 -0.081039469	 0.862998839	 1.229291506
N	 -3.293248065	 -1.391669444	 0.000003633
C	 -3.338997917	 -0.690167645	 1.140097931
H	 -3.300021408	 -1.269326540	 2.054747860
C	 -3.436912592	 0.698073733	 1.193146978
H	 -3.473464574	 1.202007947	 2.148657828
C	 -3.490746204	 1.409662471	 -0.000011275
H	 -3.568807055	 2.488086240	 -0.000000000
C	 -3.436947936	 0.698058524	 -1.193142496
H	 -3.473491817	 1.201983120	 -2.148651688
C	 -3.339082417	 -0.690176668	 -1.140097781
H	 -3.300218483	 -1.269342074	 -2.054725318
