17
0  1  0  1  0  1   6  11 -1.52657 -1.36900 -2.04116 -2.19872 -2.08400 -2.15178  1.83252  1.83144  1.82799 -1.49440 -1.10735  3.26940 -0.32049 -3.33595
C	 0.037415753	 0.000338132	 -0.577124581
H	 -0.373064128	 -0.911458867	 -0.986315505
H	 -0.114865496	 0.911333694	 -1.138470528
C	 0.703826168	 -0.000164902	 0.576977872
H	 0.852680591	 -0.912366629	 1.136466398
H	 1.114230340	 0.910427577	 0.990067832
N	 -3.293248065	 -1.391669444	 0.000003633
C	 -3.338997917	 -0.690167645	 1.140097931
H	 -3.300021408	 -1.269326540	 2.054747860
C	 -3.436912592	 0.698073733	 1.193146978
H	 -3.473464574	 1.202007947	 2.148657828
C	 -3.490746204	 1.409662471	 -0.000011275
H	 -3.568807055	 2.488086240	 -0.000000000
C	 -3.436947936	 0.698058524	 -1.193142496
H	 -3.473491817	 1.201983120	 -2.148651688
C	 -3.339082417	 -0.690176668	 -1.140097781
H	 -3.300218483	 -1.269342074	 -2.054725318
