17
0  1  0  1  0  1   6  11 -1.77759 -1.59832 -2.32584 -2.50511 -2.37728 -2.45307  1.98403  1.98467  1.98018 -1.72622 -1.29300  3.68488 -0.39121 -3.72688
C	 0.225259651	 0.000239280	 -0.666344230
H	 -0.361313892	 -0.713954812	 -1.225953906
H	 0.809616420	 0.714787808	 -1.228624705
C	 0.225074924	 -0.000234921	 0.666343021
H	 -0.361650761	 -0.714808514	 1.225301509
H	 0.809301093	 0.713923569	 1.229291506
N	 -3.293248065	 -1.391669444	 0.000003633
C	 -3.338997917	 -0.690167645	 1.140097931
H	 -3.300021408	 -1.269326540	 2.054747860
C	 -3.436912592	 0.698073733	 1.193146978
H	 -3.473464574	 1.202007947	 2.148657828
C	 -3.490746204	 1.409662471	 -0.000011275
H	 -3.568807055	 2.488086240	 -0.000000000
C	 -3.436947936	 0.698058524	 -1.193142496
H	 -3.473491817	 1.201983120	 -2.148651688
C	 -3.339082417	 -0.690176668	 -1.140097781
H	 -3.300218483	 -1.269342074	 -2.054725318
