17
0  1  0  1  0  1   6  11 -0.68033 -0.25174 -2.08576 -2.51435 -2.16400 -2.37012  7.27397  7.27264  7.26417 -0.16310 -6.18863 15.39211 -1.66822 -7.69836
C	 0.016135103	 0.666422379	 3.098292466
H	 0.926609106	 1.225908098	 2.939177623
H	 -0.893412395	 1.228826606	 3.255252970
C	 0.016467787	 -0.666264921	 3.098424705
H	 0.927203478	 -1.225347405	 2.939414272
H	 -0.892820307	 -1.229089692	 3.255513856
N	 1.381382191	 -0.000233477	 0.131463739
C	 0.679350788	 -1.140239457	 0.092079660
H	 1.258719604	 -2.054962232	 0.125883611
C	 -0.709722319	 -1.193114069	 0.006664265
H	 -1.214087679	 -2.148561633	 -0.025308510
C	 -1.421613574	 0.000133427	 -0.040816901
H	 -2.500696146	 0.000257571	 -0.109169733
C	 -0.709401197	 1.193175380	 0.006521983
H	 -1.213511626	 2.148747839	 -0.025528309
C	 0.679651666	 1.139956229	 0.091893028
H	 1.259260730	 2.054510898	 0.125502478
