17
0  1  0  1  0  1   6  11  5.60338  6.31348  4.14757  3.43747  4.05220  3.68803 16.34603 16.34304 16.32223  6.31063 -11.26785 30.46124 -2.54454 -10.33822
C	 -0.714490310	 0.000275855	 -0.577124493
H	 -1.124970191	 -0.911521144	 -0.986315417
H	 -0.866771559	 0.911271417	 -1.138470440
C	 -0.048079895	 -0.000227179	 0.576977960
H	 0.100774528	 -0.912428906	 1.136466486
H	 0.362324277	 0.910365300	 0.990067920
N	 -3.293248065	 -1.391669444	 0.000003633
C	 -3.338997917	 -0.690167645	 1.140097931
H	 -3.300021408	 -1.269326540	 2.054747860
C	 -3.436912592	 0.698073733	 1.193146978
H	 -3.473464574	 1.202007947	 2.148657828
C	 -3.490746204	 1.409662471	 -0.000011275
H	 -3.568807055	 2.488086240	 -0.000000000
C	 -3.436947936	 0.698058524	 -1.193142496
H	 -3.473491817	 1.201983120	 -2.148651688
C	 -3.339082417	 -0.690176668	 -1.140097781
H	 -3.300218483	 -1.269342074	 -2.054725318
