17
0  1  0  1  0  1   6  11 17.64771 18.74030 15.60961 14.51702 15.48851 14.91461 32.57346 32.57168 32.54262 18.34298 -26.47314 67.38612 -7.70009 -14.86992
C	 -2.931433908	 0.000244716	 -0.609152206
H	 -3.080563702	 -0.911552283	 -0.049070739
H	 -3.341433133	 0.911240278	 -0.196599802
C	 -2.265157072	 -0.000258318	 -1.763331782
H	 -1.855053006	 -0.912460045	 -2.171987756
H	 -2.112612759	 0.910334161	 -2.325297200
N	 -0.095808556	 -1.391669444	 -0.000003633
C	 -0.050058704	 -0.690167645	 -1.140097931
H	 -0.089035212	 -1.269326540	 -2.054747860
C	 0.047855972	 0.698073733	 -1.193146978
H	 0.084407953	 1.202007947	 -2.148657828
C	 0.101689583	 1.409662471	 0.000011275
H	 0.179750434	 2.488086240	 0.000000000
C	 0.047891316	 0.698058524	 1.193142496
H	 0.084435196	 1.201983120	 2.148651688
C	 -0.049974203	 -0.690176668	 1.140097781
H	 -0.088838138	 -1.269342074	 2.054725318
