17
0  1  0  1  0  1   6  11 -1.46014 -1.35197 -1.86570 -1.97387 -1.90044 -1.94400  1.08191  1.08066  1.07804 -1.47589 -0.58046  1.84155 -0.19908 -2.53790
C	 0.225392269	 0.000353701	 -0.577124603
H	 -0.185087612	 -0.911443298	 -0.986315527
H	 0.073111020	 0.911349263	 -1.138470550
C	 0.891802684	 -0.000149333	 0.576977850
H	 1.040657107	 -0.912351060	 1.136466376
H	 1.302206856	 0.910443146	 0.990067810
N	 -3.293248065	 -1.391669444	 0.000003633
C	 -3.338997917	 -0.690167645	 1.140097931
H	 -3.300021408	 -1.269326540	 2.054747860
C	 -3.436912592	 0.698073733	 1.193146978
H	 -3.473464574	 1.202007947	 2.148657828
C	 -3.490746204	 1.409662471	 -0.000011275
H	 -3.568807055	 2.488086240	 -0.000000000
C	 -3.436947936	 0.698058524	 -1.193142496
H	 -3.473491817	 1.201983120	 -2.148651688
C	 -3.339082417	 -0.690176668	 -1.140097781
H	 -3.300218483	 -1.269342074	 -2.054725318
