17
0  1  0  1  0  1   6  11 -1.31083 -1.08140 -1.96951 -2.19893 -2.02230 -2.12646  3.15342  3.15216  3.14730 -1.19255 -2.03412  5.77132 -0.52744 -4.40231
C	 -0.150560763	 0.000322563	 -0.577124559
H	 -0.561040644	 -0.911474436	 -0.986315483
H	 -0.302842012	 0.911318125	 -1.138470506
C	 0.515849652	 -0.000180471	 0.576977894
H	 0.664704075	 -0.912382198	 1.136466420
H	 0.926253824	 0.910412008	 0.990067854
N	 -3.293248065	 -1.391669444	 0.000003633
C	 -3.338997917	 -0.690167645	 1.140097931
H	 -3.300021408	 -1.269326540	 2.054747860
C	 -3.436912592	 0.698073733	 1.193146978
H	 -3.473464574	 1.202007947	 2.148657828
C	 -3.490746204	 1.409662471	 -0.000011275
H	 -3.568807055	 2.488086240	 -0.000000000
C	 -3.436947936	 0.698058524	 -1.193142496
H	 -3.473491817	 1.201983120	 -2.148651688
C	 -3.339082417	 -0.690176668	 -1.140097781
H	 -3.300218483	 -1.269342074	 -2.054725318
