17
0  1  0  1  0  1   6  11 -0.40236 -0.18155 -1.00101 -1.22182 -1.04807 -1.15163  4.05374  4.05197  4.04460 -0.19463 -2.30429  7.04845 -0.71464 -4.22417
C	 -3.007077079	 0.000306993	 2.102200017
H	 -2.596597197	 -0.911490006	 2.511390941
H	 -2.854795829	 0.911302555	 2.663545964
C	 -3.673487494	 -0.000196041	 0.948097563
H	 -3.822341916	 -0.912397768	 0.388609037
H	 -4.083891666	 0.910396438	 0.535007604
N	 -0.095808556	 -1.391669444	 -0.000003633
C	 -0.050058704	 -0.690167645	 -1.140097931
H	 -0.089035212	 -1.269326540	 -2.054747860
C	 0.047855972	 0.698073733	 -1.193146978
H	 0.084407953	 1.202007947	 -2.148657828
C	 0.101689583	 1.409662471	 0.000011275
H	 0.179750434	 2.488086240	 0.000000000
C	 0.047891316	 0.698058524	 1.193142496
H	 0.084435196	 1.201983120	 2.148651688
C	 -0.049974203	 -0.690176668	 1.140097781
H	 -0.088838138	 -1.269342074	 2.054725318
