17
0  1  0  1  0  1   6  11 -0.85692 -0.69875 -1.37617 -1.53434 -1.41246 -1.48453  2.66321  2.66306  2.65925 -0.71185 -1.15681  4.11588 -0.36086 -3.31006
C	 -3.407907896	 1.610132689	 0.666344230
H	 -3.733131352	 0.745048053	 1.225953906
H	 -3.081269103	 2.473474760	 1.228624705
C	 -3.408226202	 1.609735610	 -0.666343021
H	 -3.733702244	 0.744329465	 -1.225301509
H	 -3.081859892	 2.472769558	 -1.229291506
N	 -0.095808556	 -1.391669444	 -0.000003633
C	 -0.050058704	 -0.690167645	 -1.140097931
H	 -0.089035212	 -1.269326540	 -2.054747860
C	 0.047855972	 0.698073733	 -1.193146978
H	 0.084407953	 1.202007947	 -2.148657828
C	 0.101689583	 1.409662471	 0.000011275
H	 0.179750434	 2.488086240	 0.000000000
C	 0.047891316	 0.698058524	 1.193142496
H	 0.084435196	 1.201983120	 2.148651688
C	 -0.049974203	 -0.690176668	 1.140097781
H	 -0.088838138	 -1.269342074	 2.054725318
