17
0  1  0  1  0  1   6  11  3.03716  3.57403  1.89483  1.35796  1.81124  1.54124 11.99606 11.99014 11.97130  3.84812 -8.95161 22.97053 -1.75137 -8.41943
C	 -2.907400794	 -1.355445544	 0.666344230
H	 -2.320827251	 -2.069639637	 1.225953906
H	 -3.491757563	 -0.640897016	 1.228624705
C	 -2.907216066	 -1.355919745	 -0.666343021
H	 -2.320490381	 -2.070493338	 -1.225301509
H	 -3.491442235	 -0.641761256	 -1.229291506
N	 -0.095808556	 -1.391669444	 -0.000003633
C	 -0.050058704	 -0.690167645	 -1.140097931
H	 -0.089035212	 -1.269326540	 -2.054747860
C	 0.047855972	 0.698073733	 -1.193146978
H	 0.084407953	 1.202007947	 -2.148657828
C	 0.101689583	 1.409662471	 0.000011275
H	 0.179750434	 2.488086240	 0.000000000
C	 0.047891316	 0.698058524	 1.193142496
H	 0.084435196	 1.201983120	 2.148651688
C	 -0.049974203	 -0.690176668	 1.140097781
H	 -0.088838138	 -1.269342074	 2.054725318
