17
0  1  0  1  0  1   6  11 -0.88506 -0.80975 -1.20611 -1.28142 -1.22954 -1.26077  1.12761  1.12634  1.12342 -0.85758 -0.19518  1.38234 -0.13927 -1.90547
C	 -3.766640794	 1.779616695	 0.666344230
H	 -4.091864250	 0.914532059	 1.225953906
H	 -3.440002001	 2.642958766	 1.228624705
C	 -3.766959100	 1.779219616	 -0.666343021
H	 -4.092435142	 0.913813471	 -1.225301509
H	 -3.440592790	 2.642253564	 -1.229291506
N	 -0.095808556	 -1.391669444	 -0.000003633
C	 -0.050058704	 -0.690167645	 -1.140097931
H	 -0.089035212	 -1.269326540	 -2.054747860
C	 0.047855972	 0.698073733	 -1.193146978
H	 0.084407953	 1.202007947	 -2.148657828
C	 0.101689583	 1.409662471	 0.000011275
H	 0.179750434	 2.488086240	 0.000000000
C	 0.047891316	 0.698058524	 1.193142496
H	 0.084435196	 1.201983120	 2.148651688
C	 -0.049974203	 -0.690176668	 1.140097781
H	 -0.088838138	 -1.269342074	 2.054725318
