17
0  1  0  1  0  1   6  11 -1.61605 -1.50394 -2.15793 -2.27004 -2.19342 -2.23899  1.32352  1.32180  1.31878 -1.60856 -0.64401  2.17337 -0.26170 -2.87622
C	 0.022172495	 0.666451939	 3.776072642
H	 0.932646498	 1.225937658	 3.616957799
H	 -0.887375003	 1.228856166	 3.933033146
C	 0.022505179	 -0.666235361	 3.776204881
H	 0.933240870	 -1.225317845	 3.617194448
H	 -0.886782915	 -1.229060132	 3.933294032
N	 1.381382191	 -0.000233477	 0.131463739
C	 0.679350788	 -1.140239457	 0.092079660
H	 1.258719604	 -2.054962232	 0.125883611
C	 -0.709722319	 -1.193114069	 0.006664265
H	 -1.214087679	 -2.148561633	 -0.025308510
C	 -1.421613574	 0.000133427	 -0.040816901
H	 -2.500696146	 0.000257571	 -0.109169733
C	 -0.709401197	 1.193175380	 0.006521983
H	 -1.213511626	 2.148747839	 -0.025528309
C	 0.679651666	 1.139956229	 0.091893028
H	 1.259260730	 2.054510898	 0.125502478
