17
0  1  0  1  0  1   6  11 -1.78633 -1.62866 -2.46518 -2.62285 -2.50832 -2.57621  1.96426  1.96288  1.95892 -1.72668 -1.22008  3.56919 -0.40846 -3.66733
C	 0.020663147	 0.666444549	 3.606627598
H	 0.931137150	 1.225930268	 3.447512755
H	 -0.888884351	 1.228848776	 3.763588102
C	 0.020995831	 -0.666242751	 3.606759837
H	 0.931731522	 -1.225325235	 3.447749404
H	 -0.888292263	 -1.229067522	 3.763848988
N	 1.381382191	 -0.000233477	 0.131463739
C	 0.679350788	 -1.140239457	 0.092079660
H	 1.258719604	 -2.054962232	 0.125883611
C	 -0.709722319	 -1.193114069	 0.006664265
H	 -1.214087679	 -2.148561633	 -0.025308510
C	 -1.421613574	 0.000133427	 -0.040816901
H	 -2.500696146	 0.000257571	 -0.109169733
C	 -0.709401197	 1.193175380	 0.006521983
H	 -1.213511626	 2.148747839	 -0.025528309
C	 0.679651666	 1.139956229	 0.091893028
H	 1.259260730	 2.054510898	 0.125502478
