17
0  1  0  1  0  1   6  11  2.52945  2.99986  1.37024  0.89983  1.29784  1.06252 10.89880 10.89932 10.88694  3.34756 -7.50977 20.22465 -1.61515 -7.75217
C	 -2.869808549	 1.355906679	 0.666344230
H	 -3.195032005	 0.490822043	 1.225953906
H	 -2.543169756	 2.219248750	 1.228624705
C	 -2.870126855	 1.355509600	 -0.666343021
H	 -3.195602897	 0.490103455	 -1.225301509
H	 -2.543760545	 2.218543548	 -1.229291506
N	 -0.095808556	 -1.391669444	 -0.000003633
C	 -0.050058704	 -0.690167645	 -1.140097931
H	 -0.089035212	 -1.269326540	 -2.054747860
C	 0.047855972	 0.698073733	 -1.193146978
H	 0.084407953	 1.202007947	 -2.148657828
C	 0.101689583	 1.409662471	 0.000011275
H	 0.179750434	 2.488086240	 0.000000000
C	 0.047891316	 0.698058524	 1.193142496
H	 0.084435196	 1.201983120	 2.148651688
C	 -0.049974203	 -0.690176668	 1.140097781
H	 -0.088838138	 -1.269342074	 2.054725318
