17
0  1  0  1  0  1   6  11 -1.54904 -1.34585 -2.29442 -2.49761 -2.34564 -2.43564  2.91597  2.91659  2.91151 -1.40863 -1.59159  5.03116 -0.53236 -4.31583
C	 0.071955211	 0.000346381	 -0.666344230
H	 0.397178667	 -0.864738254	 -1.225953906
H	 -0.254683582	 0.863688452	 -1.228624705
C	 0.072273518	 -0.000050698	 0.666343021
H	 0.397749560	 -0.865456842	 1.225301509
H	 -0.254092792	 0.862983251	 1.229291506
N	 -3.293248065	 -1.391669444	 0.000003633
C	 -3.338997917	 -0.690167645	 1.140097931
H	 -3.300021408	 -1.269326540	 2.054747860
C	 -3.436912592	 0.698073733	 1.193146978
H	 -3.473464574	 1.202007947	 2.148657828
C	 -3.490746204	 1.409662471	 -0.000011275
H	 -3.568807055	 2.488086240	 -0.000000000
C	 -3.436947936	 0.698058524	 -1.193142496
H	 -3.473491817	 1.201983120	 -2.148651688
C	 -3.339082417	 -0.690176668	 -1.140097781
H	 -3.300218483	 -1.269342074	 -2.054725318
