17
0  1  0  1  0  1   6  11  5.23828  5.98886  3.71504  2.96446  3.60456  3.22613 16.79116 16.78772 16.76787  5.90723 -11.46378 31.70348 -3.12078 -11.21169
C	 -0.497547007	 0.000177104	 -0.666344230
H	 -1.084120550	 -0.714016988	 -1.225953906
H	 0.086809762	 0.714725632	 -1.228624705
C	 -0.497731734	 -0.000297097	 0.666343021
H	 -1.084457419	 -0.714870690	 1.225301509
H	 0.086494435	 0.713861393	 1.229291506
N	 -3.293248065	 -1.391669444	 0.000003633
C	 -3.338997917	 -0.690167645	 1.140097931
H	 -3.300021408	 -1.269326540	 2.054747860
C	 -3.436912592	 0.698073733	 1.193146978
H	 -3.473464574	 1.202007947	 2.148657828
C	 -3.490746204	 1.409662471	 -0.000011275
H	 -3.568807055	 2.488086240	 -0.000000000
C	 -3.436947936	 0.698058524	 -1.193142496
H	 -3.473491817	 1.201983120	 -2.148651688
C	 -3.339082417	 -0.690176668	 -1.140097781
H	 -3.300218483	 -1.269342074	 -2.054725318
