17
0  1  0  1  0  1   6  11  5.60340  6.31338  4.14700  3.43702  4.05163  3.68753 16.34693 16.34394 16.32313  6.31083 -11.27016 30.46494 -2.54487 -10.33907
C	 -0.048266032	 0.000275855	 -0.577017567
H	 0.100863763	 -0.911521144	 -1.137099034
H	 0.361733194	 0.911271417	 -0.989569971
C	 -0.714542868	 -0.000227179	 0.577162008
H	 -1.124646933	 -0.912428906	 0.985817983
H	 -0.867087181	 0.910365300	 1.139127427
N	 -3.293248065	 -1.391669444	 0.000003633
C	 -3.338997917	 -0.690167645	 1.140097931
H	 -3.300021408	 -1.269326540	 2.054747860
C	 -3.436912592	 0.698073733	 1.193146978
H	 -3.473464574	 1.202007947	 2.148657828
C	 -3.490746204	 1.409662471	 -0.000011275
H	 -3.568807055	 2.488086240	 -0.000000000
C	 -3.436947936	 0.698058524	 -1.193142496
H	 -3.473491817	 1.201983120	 -2.148651688
C	 -3.339082417	 -0.690176668	 -1.140097781
H	 -3.300218483	 -1.269342074	 -2.054725318
