17
0  1  0  1  0  1   6  11 -0.73923 -0.69230 -0.95899 -1.00592 -0.97675 -0.99496  0.66808  0.66639  0.66319 -0.75820 -0.03548  0.69474 -0.08892 -1.32854
C	 -4.416089692	 0.000369271	 -1.286963705
H	 -4.565219486	 -0.911427728	 -0.726882238
H	 -4.826088917	 0.911364833	 -0.874411301
C	 -3.749812856	 -0.000133763	 -2.441143281
H	 -3.339708790	 -0.912335490	 -2.849799255
H	 -3.597268543	 0.910458716	 -3.003108699
N	 -0.095808556	 -1.391669444	 -0.000003633
C	 -0.050058704	 -0.690167645	 -1.140097931
H	 -0.089035212	 -1.269326540	 -2.054747860
C	 0.047855972	 0.698073733	 -1.193146978
H	 0.084407953	 1.202007947	 -2.148657828
C	 0.101689583	 1.409662471	 0.000011275
H	 0.179750434	 2.488086240	 0.000000000
C	 0.047891316	 0.698058524	 1.193142496
H	 0.084435196	 1.201983120	 2.148651688
C	 -0.049974203	 -0.690176668	 1.140097781
H	 -0.088838138	 -1.269342074	 2.054725318
