17
0  1  0  1  0  1   6  11 -0.46565 -0.06180 -1.71995 -2.12380 -1.79583 -1.98939  7.06228  7.06100  7.05161  0.05384 -5.06390 13.66061 -1.37823 -7.16464
C	 -0.274151435	 0.000315206	 -0.666344230
H	 0.051072021	 -0.864769429	 -1.225953906
H	 -0.600790228	 0.863657277	 -1.228624705
C	 -0.273833128	 -0.000081873	 0.666343021
H	 0.051642914	 -0.865488017	 1.225301509
H	 -0.600199438	 0.862952076	 1.229291506
N	 -3.293248065	 -1.391669444	 0.000003633
C	 -3.338997917	 -0.690167645	 1.140097931
H	 -3.300021408	 -1.269326540	 2.054747860
C	 -3.436912592	 0.698073733	 1.193146978
H	 -3.473464574	 1.202007947	 2.148657828
C	 -3.490746204	 1.409662471	 -0.000011275
H	 -3.568807055	 2.488086240	 -0.000000000
C	 -3.436947936	 0.698058524	 -1.193142496
H	 -3.473491817	 1.201983120	 -2.148651688
C	 -3.339082417	 -0.690176668	 -1.140097781
H	 -3.300218483	 -1.269342074	 -2.054725318
