17
0  1  0  1  0  1   6  11 -0.73280 -0.36485 -1.62646 -1.99442 -1.70557 -1.87630  5.82406  5.82247  5.81360 -0.46522 -3.90669 10.94573 -1.08198 -6.42228
C	 -0.136143678	 0.000208192	 -0.666344230
H	 -0.722717221	 -0.713985900	 -1.225953906
H	 0.448213091	 0.714756720	 -1.228624705
C	 -0.136328405	 -0.000266009	 0.666343021
H	 -0.723054090	 -0.714839602	 1.225301509
H	 0.447897764	 0.713892481	 1.229291506
N	 -3.293248065	 -1.391669444	 0.000003633
C	 -3.338997917	 -0.690167645	 1.140097931
H	 -3.300021408	 -1.269326540	 2.054747860
C	 -3.436912592	 0.698073733	 1.193146978
H	 -3.473464574	 1.202007947	 2.148657828
C	 -3.490746204	 1.409662471	 -0.000011275
H	 -3.568807055	 2.488086240	 -0.000000000
C	 -3.436947936	 0.698058524	 -1.193142496
H	 -3.473491817	 1.201983120	 -2.148651688
C	 -3.339082417	 -0.690176668	 -1.140097781
H	 -3.300218483	 -1.269342074	 -2.054725318
