17
0  1  0  1  0  1   6  11  3.24905  3.73186  2.17964  1.69682  2.10412  1.86288 11.37869 11.37689 11.36321  3.85058 -8.07439 21.96334 -2.24647 -7.79190
C	 -3.302597854	 0.000275855	 -0.778605081
H	 -3.451727648	 -0.911521144	 -0.218523614
H	 -3.712597079	 0.911271417	 -0.366052677
C	 -2.636321018	 -0.000227179	 -1.932784657
H	 -2.226216952	 -0.912428906	 -2.341440631
H	 -2.483776705	 0.910365300	 -2.494750075
N	 -0.095808556	 -1.391669444	 -0.000003633
C	 -0.050058704	 -0.690167645	 -1.140097931
H	 -0.089035212	 -1.269326540	 -2.054747860
C	 0.047855972	 0.698073733	 -1.193146978
H	 0.084407953	 1.202007947	 -2.148657828
C	 0.101689583	 1.409662471	 0.000011275
H	 0.179750434	 2.488086240	 0.000000000
C	 0.047891316	 0.698058524	 1.193142496
H	 0.084435196	 1.201983120	 2.148651688
C	 -0.049974203	 -0.690176668	 1.140097781
H	 -0.088838138	 -1.269342074	 2.054725318
