17
0  1  0  1  0  1   6  11 -1.35557 -1.25482 -1.81753 -1.91828 -1.85249 -1.89158  1.33990  1.33963  1.33715 -1.35431 -0.33035  1.81393 -0.21579 -2.62211
C	 0.418061857	 0.000377556	 -0.666344230
H	 0.743285313	 -0.864707079	 -1.225953906
H	 0.091423064	 0.863719627	 -1.228624705
C	 0.418380164	 -0.000019523	 0.666343021
H	 0.743856206	 -0.865425667	 1.225301509
H	 0.092013854	 0.863014426	 1.229291506
N	 -3.293248065	 -1.391669444	 0.000003633
C	 -3.338997917	 -0.690167645	 1.140097931
H	 -3.300021408	 -1.269326540	 2.054747860
C	 -3.436912592	 0.698073733	 1.193146978
H	 -3.473464574	 1.202007947	 2.148657828
C	 -3.490746204	 1.409662471	 -0.000011275
H	 -3.568807055	 2.488086240	 -0.000000000
C	 -3.436947936	 0.698058524	 -1.193142496
H	 -3.473491817	 1.201983120	 -2.148651688
C	 -3.339082417	 -0.690176668	 -1.140097781
H	 -3.300218483	 -1.269342074	 -2.054725318
