17
0  1  0  1  0  1   6  11  5.02541  5.82377  2.81570  2.01733  2.70401  2.29816 17.86409 17.85877 17.83777  6.30628 -14.27099 36.22024 -3.62970 -12.01327
C	 -0.620258082	 0.000284030	 -0.666344230
H	 -0.295034626	 -0.864800605	 -1.225953906
H	 -0.946896875	 0.863626101	 -1.228624705
C	 -0.619939775	 -0.000113049	 0.666343021
H	 -0.294463733	 -0.865519193	 1.225301509
H	 -0.946306085	 0.862920900	 1.229291506
N	 -3.293248065	 -1.391669444	 0.000003633
C	 -3.338997917	 -0.690167645	 1.140097931
H	 -3.300021408	 -1.269326540	 2.054747860
C	 -3.436912592	 0.698073733	 1.193146978
H	 -3.473464574	 1.202007947	 2.148657828
C	 -3.490746204	 1.409662471	 -0.000011275
H	 -3.568807055	 2.488086240	 -0.000000000
C	 -3.436947936	 0.698058524	 -1.193142496
H	 -3.473491817	 1.201983120	 -2.148651688
C	 -3.339082417	 -0.690176668	 -1.140097781
H	 -3.300218483	 -1.269342074	 -2.054725318
