34
0  1  0  1  0  1  17  17 -2.42625 -2.25406 -2.34040 -2.51259 -2.44801 -2.48602  1.16329  1.16203  1.16045 -2.42440 -0.67214  2.20236 -0.20067 -3.75395
C	 0.711839005	 -0.300080181	 2.533432669
H	 0.204511043	 -1.264069965	 2.567771417
H	 1.784852202	 -0.489287142	 2.563646161
H	 0.443589545	 0.249850773	 3.434368525
C	 0.335181985	 0.465611527	 1.271962175
H	 0.835253543	 1.436917719	 1.266768361
H	 -0.737584523	 0.673372501	 1.271128176
C	 0.698173384	 -0.288372786	 -0.000161674
H	 1.771842663	 -0.499010750	 -0.000614345
H	 0.195388212	 -1.260084357	 -0.000334262
C	 0.334335116	 0.466406957	 -1.271573412
H	 0.834008556	 1.437924578	 -1.265941117
H	 -0.738518933	 0.673741001	 -1.270170697
C	 0.710834972	 -0.298349660	 -2.533648198
H	 0.204236579	 -1.262734868	 -2.568087539
H	 0.441700793	 0.251726044	 -3.434194932
H	 1.783988959	 -0.486741889	 -2.564477289
C	 -3.827087202	 0.334806113	 -2.533166477
H	 -4.662587261	 1.034183879	 -2.563195243
H	 -2.906451553	 0.917186404	 -2.566589939
H	 -3.868563953	 -0.274935361	 -3.434538831
C	 -3.883241625	 -0.517288220	 -1.272098674
H	 -3.057686444	 -1.233162050	 -1.271536440
H	 -4.801664148	 -1.108947156	 -1.267096468
C	 -3.820977651	 0.317159146	 -0.000000000
H	 -2.899732114	 0.907329042	 0.000225167
H	 -4.645506886	 1.036398234	 0.000067356
C	 -3.883537859	 -0.518071519	 1.271680846
H	 -3.058309946	 -1.234278887	 1.270461371
H	 -4.802218126	 -1.109280691	 1.266172651
C	 -3.826971020	 0.332749819	 2.533545515
H	 -4.661945672	 1.032721196	 2.564350602
H	 -3.869097236	 -0.278091178	 3.434196113
H	 -2.905885061	 0.914362726	 2.567945889
