34
0  1  0  1  0  1  17  17 38.56092 40.81725 38.28354 36.02721 37.85686 36.77112 67.88360 67.87237 67.80605 37.77804 -42.55470 124.27280 -10.78457 -33.15549
C	 -0.758295601	 -0.300119272	 2.533432648
H	 -1.265623563	 -1.264109056	 2.567771396
H	 0.314717596	 -0.489326233	 2.563646140
H	 -1.026545061	 0.249811682	 3.434368504
C	 -1.134952621	 0.465572436	 1.271962154
H	 -0.634881063	 1.436878628	 1.266768340
H	 -2.207719129	 0.673333410	 1.271128155
C	 -0.771961222	 -0.288411877	 -0.000161695
H	 0.301708057	 -0.499049841	 -0.000614366
H	 -1.274746394	 -1.260123448	 -0.000334283
C	 -1.135799490	 0.466367866	 -1.271573433
H	 -0.636126050	 1.437885487	 -1.265941138
H	 -2.208653539	 0.673701910	 -1.270170718
C	 -0.759299634	 -0.298388751	 -2.533648219
H	 -1.265898027	 -1.262773959	 -2.568087560
H	 -1.028433813	 0.251686953	 -3.434194953
H	 0.313854353	 -0.486780980	 -2.564477310
C	 -3.827087202	 0.334806113	 -2.533166477
H	 -4.662587261	 1.034183879	 -2.563195243
H	 -2.906451553	 0.917186404	 -2.566589939
H	 -3.868563953	 -0.274935361	 -3.434538831
C	 -3.883241625	 -0.517288220	 -1.272098674
H	 -3.057686444	 -1.233162050	 -1.271536440
H	 -4.801664148	 -1.108947156	 -1.267096468
C	 -3.820977651	 0.317159146	 -0.000000000
H	 -2.899732114	 0.907329042	 0.000225167
H	 -4.645506886	 1.036398234	 0.000067356
C	 -3.883537859	 -0.518071519	 1.271680846
H	 -3.058309946	 -1.234278887	 1.270461371
H	 -4.802218126	 -1.109280691	 1.266172651
C	 -3.826971020	 0.332749819	 2.533545515
H	 -4.661945672	 1.032721196	 2.564350602
H	 -3.869097236	 -0.278091178	 3.434196113
H	 -2.905885061	 0.914362726	 2.567945889
