34
0  1  0  1  0  1  17  17 11.55261 12.44195 11.89982 11.01047 11.68586 11.28410 23.98619 23.97900 23.95223 11.99937 -13.49610 42.61202 -3.61183 -13.50472
C	 -2.422437024	 -0.334508626	 -3.722721227
H	 -1.607351858	 -0.915684287	 -3.291782558
H	 -3.130161158	 -1.034873259	 -4.166213482
H	 -2.008909089	 0.275870281	 -4.524281881
C	 -3.102233741	 0.516928355	 -2.658581386
H	 -3.900472236	 1.108068413	 -3.113447296
H	 -2.388039001	 1.233237890	 -2.245277841
C	 -3.684054430	 -0.317536914	 -1.525573624
H	 -4.398323811	 -1.036789381	 -1.937434544
H	 -2.886288393	 -0.907671233	 -1.064783901
C	 -4.373710815	 0.518040652	 -0.455647105
H	 -5.166329218	 1.109562872	 -0.919769167
H	 -3.658147195	 1.234024225	 -0.044135972
C	 -4.955973770	 -0.332507934	 0.665501656
H	 -4.175653601	 -0.914390827	 1.155786841
H	 -5.442586270	 0.278438689	 1.424417597
H	 -5.694677578	 -1.032237384	 0.274609181
C	 -0.020707161	 0.334806113	 2.533166477
H	 0.814792899	 1.034183879	 2.563195243
H	 -0.941342809	 0.917186404	 2.566589939
H	 0.020769591	 -0.274935361	 3.434538831
C	 0.035447263	 -0.517288220	 1.272098674
H	 -0.790107918	 -1.233162050	 1.271536440
H	 0.953869786	 -1.108947156	 1.267096468
C	 -0.026816711	 0.317159146	 -0.000000000
H	 -0.948062248	 0.907329042	 -0.000225167
H	 0.797712523	 1.036398234	 -0.000067356
C	 0.035743497	 -0.518071519	 -1.271680846
H	 -0.789484416	 -1.234278887	 -1.270461371
H	 0.954423764	 -1.109280691	 -1.266172651
C	 -0.020823342	 0.332749819	 -2.533545515
H	 0.814151310	 1.032721196	 -2.564350602
H	 0.021302874	 -0.278091178	 -3.434196113
H	 -0.941909301	 0.914362726	 -2.567945889
