34
0  1  0  1  0  1  17  17 -3.49279 -3.23033 -3.37858 -3.64104 -3.53280 -3.59630  1.75191  1.75044  1.74825 -3.47124 -1.04108  3.28658 -0.26547 -5.45127
C	 2.533556617	 0.290707240	 4.724575312
H	 2.568141104	 0.890513938	 3.815249764
H	 2.564059928	 0.973913817	 5.573320133
H	 3.434237308	 -0.320790066	 4.754784252
C	 1.271730415	 -0.561180031	 4.763879564
H	 1.266286705	 -1.170907744	 5.670376524
H	 1.270599903	 -1.260533775	 3.924298502
C	 -0.000044575	 0.274919069	 4.718263124
H	 -0.000199502	 0.977229047	 5.557247598
H	 0.000032321	 0.883695488	 3.809193489
C	 -1.271805414	 -0.561222910	 4.763534662
H	 -1.266423174	 -1.171332359	 5.669784765
H	 -1.270699074	 -1.260245802	 3.923671009
C	 -2.533524644	 0.290823399	 4.724556956
H	 -2.567717946	 0.891357067	 3.815680198
H	 -3.434326620	 -0.320474956	 4.754070138
H	 -2.564064178	 0.973409639	 5.573818346
C	 -2.533308650	 -0.294879067	 0.713148758
H	 -2.563626820	 -0.977081809	 -0.136422641
H	 -2.566978352	 -0.895875900	 1.621731768
H	 -3.434426110	 0.315957131	 0.684104472
C	 -1.271884866	 0.557655468	 0.674354677
H	 -1.271026303	 1.256565714	 1.514319405
H	 -1.266632549	 1.167895814	 -0.231826531
C	 -0.000135043	 -0.278418218	 0.719603148
H	 -0.000159375	 -0.887229516	 1.628637086
H	 -0.000365425	 -0.980714184	 -0.119404392
C	 1.271894760	 0.557382187	 0.674061079
H	 1.270971755	 1.256633312	 1.513705410
H	 1.266636490	 1.167182502	 -0.232386925
C	 2.533403758	 -0.294941760	 0.713280149
H	 2.563919186	 -0.977774101	 -0.135778362
H	 3.434309555	 0.316254316	 0.683599450
H	 2.567558205	 -0.895208868	 1.622328649
