34
0  1  0  1  0  1  17  17 -2.72544 -2.46251 -2.56200 -2.82493 -2.70800 -2.77696  2.01767  2.01287  2.00965 -2.64775 -1.29638  3.92476 -0.34121 -4.93491
C	 0.223178201	 -0.279259322	 2.533432666
H	 -0.865325422	 -0.321895311	 2.567771414
H	 0.595826765	 -1.303119489	 2.563646158
H	 0.565307648	 0.228017002	 3.434368522
C	 0.697958162	 0.429781080	 1.271962172
H	 1.789169778	 0.482359503	 1.266768358
H	 0.341501189	 1.462704615	 1.271128173
C	 0.226484292	 -0.261570849	 -0.000161677
H	 0.580901104	 -1.296714702	 -0.000614348
H	 -0.866435199	 -0.312001903	 -0.000334265
C	 0.698223590	 0.430912205	 -1.271573415
H	 1.789419250	 0.483941123	 -1.265941120
H	 0.341353114	 1.463698088	 -1.270170700
C	 0.224174860	 -0.277524543	 -2.533648201
H	 -0.864306426	 -0.320990069	 -2.568087542
H	 0.565987304	 0.230590345	 -3.434194935
H	 0.597599397	 -1.301099273	 -2.564477292
C	 -3.827087202	 0.334806113	 -2.533166477
H	 -4.662587261	 1.034183879	 -2.563195243
H	 -2.906451553	 0.917186404	 -2.566589939
H	 -3.868563953	 -0.274935361	 -3.434538831
C	 -3.883241625	 -0.517288220	 -1.272098674
H	 -3.057686444	 -1.233162050	 -1.271536440
H	 -4.801664148	 -1.108947156	 -1.267096468
C	 -3.820977651	 0.317159146	 -0.000000000
H	 -2.899732114	 0.907329042	 0.000225167
H	 -4.645506886	 1.036398234	 0.000067356
C	 -3.883537859	 -0.518071519	 1.271680846
H	 -3.058309946	 -1.234278887	 1.270461371
H	 -4.802218126	 -1.109280691	 1.266172651
C	 -3.826971020	 0.332749819	 2.533545515
H	 -4.661945672	 1.032721196	 2.564350602
H	 -3.869097236	 -0.278091178	 3.434196113
H	 -2.905885061	 0.914362726	 2.567945889
