34
0  1  0  1  0  1  17  17  9.19074 10.36300  9.44869  8.27644  9.13858  8.62779 25.69446 25.67729 25.64799  9.94126 -16.21335 48.40974 -4.42270 -17.83244
C	 -0.628079189	 -0.279280996	 2.533432654
H	 -1.716582812	 -0.321916985	 2.567771402
H	 -0.255430625	 -1.303141163	 2.563646146
H	 -0.285949742	 0.227995328	 3.434368510
C	 -0.153299228	 0.429759406	 1.271962160
H	 0.937912388	 0.482337829	 1.266768346
H	 -0.509756201	 1.462682941	 1.271128161
C	 -0.624773098	 -0.261592523	 -0.000161689
H	 -0.270356286	 -1.296736376	 -0.000614360
H	 -1.717692589	 -0.312023577	 -0.000334277
C	 -0.153033800	 0.430890531	 -1.271573427
H	 0.938161860	 0.483919449	 -1.265941132
H	 -0.509904276	 1.463676414	 -1.270170712
C	 -0.627082530	 -0.277546217	 -2.533648213
H	 -1.715563816	 -0.321011743	 -2.568087554
H	 -0.285270086	 0.230568671	 -3.434194947
H	 -0.253657993	 -1.301120947	 -2.564477304
C	 -3.827087202	 0.334806113	 -2.533166477
H	 -4.662587261	 1.034183879	 -2.563195243
H	 -2.906451553	 0.917186404	 -2.566589939
H	 -3.868563953	 -0.274935361	 -3.434538831
C	 -3.883241625	 -0.517288220	 -1.272098674
H	 -3.057686444	 -1.233162050	 -1.271536440
H	 -4.801664148	 -1.108947156	 -1.267096468
C	 -3.820977651	 0.317159146	 -0.000000000
H	 -2.899732114	 0.907329042	 0.000225167
H	 -4.645506886	 1.036398234	 0.000067356
C	 -3.883537859	 -0.518071519	 1.271680846
H	 -3.058309946	 -1.234278887	 1.270461371
H	 -4.802218126	 -1.109280691	 1.266172651
C	 -3.826971020	 0.332749819	 2.533545515
H	 -4.661945672	 1.032721196	 2.564350602
H	 -3.869097236	 -0.278091178	 3.434196113
H	 -2.905885061	 0.914362726	 2.567945889
