34
0  1  0  1  0  1  17  17 -1.45884 -1.36966 -1.39635 -1.48553 -1.45283 -1.47206  0.50535  0.50505  0.50429 -1.46493 -0.26121  0.88590 -0.06556 -2.02406
C	 -6.113658106	 -0.334479146	 -0.184338149
H	 -5.332911688	 -0.915654807	 -0.674753275
H	 -6.851595732	 -1.034843779	 0.206822802
H	 -6.601066027	 0.275899761	 -0.943244173
C	 -5.531984329	 0.516957835	 0.936452998
H	 -6.325029010	 1.108097893	 1.400314857
H	 -4.816955590	 1.233267370	 0.524593982
C	 -4.841681169	 -0.317507434	 2.006828376
H	 -5.555497879	 -1.036759901	 2.419473345
H	 -4.043742544	 -0.907641753	 1.546337583
C	 -4.259925816	 0.518070132	 3.139051585
H	 -5.058176514	 1.109592352	 3.593418226
H	 -3.545764911	 1.234053705	 2.725110878
C	 -3.580113985	 -0.332478454	 4.203880476
H	 -2.765354475	 -0.914361347	 3.773245979
H	 -3.166179751	 0.278468169	 5.004757233
H	 -4.287988702	 -1.032207904	 4.648170502
C	 -0.020707161	 0.334806113	 2.533166477
H	 0.814792899	 1.034183879	 2.563195243
H	 -0.941342809	 0.917186404	 2.566589939
H	 0.020769591	 -0.274935361	 3.434538831
C	 0.035447263	 -0.517288220	 1.272098674
H	 -0.790107918	 -1.233162050	 1.271536440
H	 0.953869786	 -1.108947156	 1.267096468
C	 -0.026816711	 0.317159146	 -0.000000000
H	 -0.948062248	 0.907329042	 -0.000225167
H	 0.797712523	 1.036398234	 -0.000067356
C	 0.035743497	 -0.518071519	 -1.271680846
H	 -0.789484416	 -1.234278887	 -1.270461371
H	 0.954423764	 -1.109280691	 -1.266172651
C	 -0.020823342	 0.332749819	 -2.533545515
H	 0.814151310	 1.032721196	 -2.564350602
H	 0.021302874	 -0.278091178	 -3.434196113
H	 -0.941909301	 0.914362726	 -2.567945889
