34
0  1  0  1  0  1  17  17 -2.87361 -2.60418 -2.71748 -2.98691 -2.86766 -2.93798  2.00455  1.99949  1.99622 -2.80126 -1.31279  3.91725 -0.32833 -5.07740
C	 -3.899094045	 1.623811416	 -2.533432666
H	 -3.391766083	 0.659821632	 -2.567771414
H	 -4.972107242	 1.434604455	 -2.563646158
H	 -3.630844585	 2.173742370	 -3.434368522
C	 -3.522437025	 2.389503124	 -1.271962172
H	 -4.022508583	 3.360809316	 -1.266768358
H	 -2.449670517	 2.597264098	 -1.271128173
C	 -3.885428424	 1.635518811	 0.000161677
H	 -4.959097703	 1.424880847	 0.000614348
H	 -3.382643252	 0.663807241	 0.000334265
C	 -3.521590157	 2.390298555	 1.271573415
H	 -4.021263597	 3.361816176	 1.265941120
H	 -2.448736107	 2.597632598	 1.270170700
C	 -3.898090012	 1.625541937	 2.533648201
H	 -3.391491619	 0.661156729	 2.568087542
H	 -3.628955833	 2.175617641	 3.434194935
H	 -4.971243999	 1.437149708	 2.564477292
C	 -0.020707161	 0.334806113	 2.533166477
H	 0.814792899	 1.034183879	 2.563195243
H	 -0.941342809	 0.917186404	 2.566589939
H	 0.020769591	 -0.274935361	 3.434538831
C	 0.035447263	 -0.517288220	 1.272098674
H	 -0.790107918	 -1.233162050	 1.271536440
H	 0.953869786	 -1.108947156	 1.267096468
C	 -0.026816711	 0.317159146	 -0.000000000
H	 -0.948062248	 0.907329042	 -0.000225167
H	 0.797712523	 1.036398234	 -0.000067356
C	 0.035743497	 -0.518071519	 -1.271680846
H	 -0.789484416	 -1.234278887	 -1.270461371
H	 0.954423764	 -1.109280691	 -1.266172651
C	 -0.020823342	 0.332749819	 -2.533545515
H	 0.814151310	 1.032721196	 -2.564350602
H	 0.021302874	 -0.278091178	 -3.434196113
H	 -0.941909301	 0.914362726	 -2.567945889
