34
0  1  0  1  0  1  17  17 -2.56003 -2.17831 -2.34161 -2.72333 -2.52603 -2.64266  3.89503  3.88641  3.88032 -2.37245 -2.47822  7.51851 -0.66520 -6.74755
C	 0.010363853	 -0.279264740	 2.533432663
H	 -1.078139770	 -0.321900729	 2.567771411
H	 0.383012417	 -1.303124907	 2.563646155
H	 0.352493300	 0.228011584	 3.434368519
C	 0.485143814	 0.429775662	 1.271962169
H	 1.576355430	 0.482354085	 1.266768355
H	 0.128686841	 1.462699197	 1.271128170
C	 0.013669944	 -0.261576267	 -0.000161680
H	 0.368086756	 -1.296720120	 -0.000614351
H	 -1.079249547	 -0.312007321	 -0.000334268
C	 0.485409242	 0.430906787	 -1.271573418
H	 1.576604902	 0.483935705	 -1.265941123
H	 0.128538766	 1.463692670	 -1.270170703
C	 0.011360512	 -0.277529961	 -2.533648204
H	 -1.077120774	 -0.320995487	 -2.568087545
H	 0.353172956	 0.230584927	 -3.434194938
H	 0.384785049	 -1.301104691	 -2.564477295
C	 -3.827087202	 0.334806113	 -2.533166477
H	 -4.662587261	 1.034183879	 -2.563195243
H	 -2.906451553	 0.917186404	 -2.566589939
H	 -3.868563953	 -0.274935361	 -3.434538831
C	 -3.883241625	 -0.517288220	 -1.272098674
H	 -3.057686444	 -1.233162050	 -1.271536440
H	 -4.801664148	 -1.108947156	 -1.267096468
C	 -3.820977651	 0.317159146	 -0.000000000
H	 -2.899732114	 0.907329042	 0.000225167
H	 -4.645506886	 1.036398234	 0.000067356
C	 -3.883537859	 -0.518071519	 1.271680846
H	 -3.058309946	 -1.234278887	 1.270461371
H	 -4.802218126	 -1.109280691	 1.266172651
C	 -3.826971020	 0.332749819	 2.533545515
H	 -4.661945672	 1.032721196	 2.564350602
H	 -3.869097236	 -0.278091178	 3.434196113
H	 -2.905885061	 0.914362726	 2.567945889
