34
0  1  0  1  0  1  17  17 -1.55554 -1.33651 -1.39673 -1.61576 -1.50184 -1.56896  2.46311  2.46129  2.45829 -1.46086 -1.34363  4.41043 -0.34689 -4.18077
C	 -3.117536230	 -0.334490938	 -4.011306062
H	 -2.302451064	 -0.915666599	 -3.580367393
H	 -3.825260364	 -1.034855571	 -4.454798317
H	 -2.704008295	 0.275887969	 -4.812866716
C	 -3.797332947	 0.516946043	 -2.947166221
H	 -4.595571442	 1.108086101	 -3.402032131
H	 -3.083138207	 1.233255578	 -2.533862676
C	 -4.379153636	 -0.317519226	 -1.814158459
H	 -5.093423017	 -1.036771693	 -2.226019379
H	 -3.581387599	 -0.907653545	 -1.353368736
C	 -5.068810021	 0.518058340	 -0.744231940
H	 -5.861428424	 1.109580560	 -1.208354002
H	 -4.353246401	 1.234041913	 -0.332720807
C	 -5.651072976	 -0.332490246	 0.376916821
H	 -4.870752807	 -0.914373139	 0.867202006
H	 -6.137685476	 0.278456377	 1.135832762
H	 -6.389776784	 -1.032219696	 -0.013975654
C	 -0.020707161	 0.334806113	 2.533166477
H	 0.814792899	 1.034183879	 2.563195243
H	 -0.941342809	 0.917186404	 2.566589939
H	 0.020769591	 -0.274935361	 3.434538831
C	 0.035447263	 -0.517288220	 1.272098674
H	 -0.790107918	 -1.233162050	 1.271536440
H	 0.953869786	 -1.108947156	 1.267096468
C	 -0.026816711	 0.317159146	 -0.000000000
H	 -0.948062248	 0.907329042	 -0.000225167
H	 0.797712523	 1.036398234	 -0.000067356
C	 0.035743497	 -0.518071519	 -1.271680846
H	 -0.789484416	 -1.234278887	 -1.270461371
H	 0.954423764	 -1.109280691	 -1.266172651
C	 -0.020823342	 0.332749819	 -2.533545515
H	 0.814151310	 1.032721196	 -2.564350602
H	 0.021302874	 -0.278091178	 -3.434196113
H	 -0.941909301	 0.914362726	 -2.567945889
