34
0  1  0  1  0  1  17  17 -1.57211 -1.44454 -1.46602 -1.59360 -1.53996 -1.57144  1.04496  1.04538  1.04426 -1.54893 -0.52632  1.84057 -0.15671 -2.70646
C	 0.001916577	 -0.334485042	 2.183603826
H	 -0.813168589	 -0.915660703	 1.752665157
H	 0.709640711	 -1.034849675	 2.627096081
H	 -0.411611358	 0.275893865	 2.985164480
C	 0.681713294	 0.516951939	 1.119463985
H	 1.479951789	 1.108091997	 1.574329895
H	 -0.032481446	 1.233261474	 0.706160440
C	 1.263533983	 -0.317513330	 -0.013543777
H	 1.977803364	 -1.036765797	 0.398317143
H	 0.465767946	 -0.907647649	 -0.474333501
C	 1.953190368	 0.518064236	 -1.083470296
H	 2.745808770	 1.109586456	 -0.619348234
H	 1.237626748	 1.234047809	 -1.494981429
C	 2.535453323	 -0.332484350	 -2.204619057
H	 1.755133154	 -0.914367243	 -2.694904242
H	 3.022065823	 0.278462273	 -2.963534998
H	 3.274157131	 -1.032213800	 -1.813726582
C	 -3.827087202	 0.334806113	 -2.533166477
H	 -4.662587261	 1.034183879	 -2.563195243
H	 -2.906451553	 0.917186404	 -2.566589939
H	 -3.868563953	 -0.274935361	 -3.434538831
C	 -3.883241625	 -0.517288220	 -1.272098674
H	 -3.057686444	 -1.233162050	 -1.271536440
H	 -4.801664148	 -1.108947156	 -1.267096468
C	 -3.820977651	 0.317159146	 -0.000000000
H	 -2.899732114	 0.907329042	 0.000225167
H	 -4.645506886	 1.036398234	 0.000067356
C	 -3.883537859	 -0.518071519	 1.271680846
H	 -3.058309946	 -1.234278887	 1.270461371
H	 -4.802218126	 -1.109280691	 1.266172651
C	 -3.826971020	 0.332749819	 2.533545515
H	 -4.661945672	 1.032721196	 2.564350602
H	 -3.869097236	 -0.278091178	 3.434196113
H	 -2.905885061	 0.914362726	 2.567945889
