34
0  1  0  1  0  1  17  17 -1.09325 -1.04281 -1.06164 -1.11208 -1.09807 -1.10630  0.19709  0.19718  0.19689 -1.11182 -0.08926  0.33326 -0.02648 -1.32934
C	 0.515363545	 -0.334473250	 2.183603998
H	 -0.299721621	 -0.915648911	 1.752665329
H	 1.223087679	 -1.034837883	 2.627096253
H	 0.101835610	 0.275905657	 2.985164652
C	 1.195160262	 0.516963731	 1.119464157
H	 1.993398757	 1.108103789	 1.574330067
H	 0.480965522	 1.233273266	 0.706160612
C	 1.776980951	 -0.317501538	 -0.013543605
H	 2.491250332	 -1.036754005	 0.398317315
H	 0.979214914	 -0.907635857	 -0.474333329
C	 2.466637336	 0.518076028	 -1.083470124
H	 3.259255738	 1.109598248	 -0.619348062
H	 1.751073716	 1.234059601	 -1.494981257
C	 3.048900291	 -0.332472558	 -2.204618885
H	 2.268580122	 -0.914355451	 -2.694904070
H	 3.535512791	 0.278474065	 -2.963534826
H	 3.787604099	 -1.032202008	 -1.813726410
C	 -3.827087202	 0.334806113	 -2.533166477
H	 -4.662587261	 1.034183879	 -2.563195243
H	 -2.906451553	 0.917186404	 -2.566589939
H	 -3.868563953	 -0.274935361	 -3.434538831
C	 -3.883241625	 -0.517288220	 -1.272098674
H	 -3.057686444	 -1.233162050	 -1.271536440
H	 -4.801664148	 -1.108947156	 -1.267096468
C	 -3.820977651	 0.317159146	 -0.000000000
H	 -2.899732114	 0.907329042	 0.000225167
H	 -4.645506886	 1.036398234	 0.000067356
C	 -3.883537859	 -0.518071519	 1.271680846
H	 -3.058309946	 -1.234278887	 1.270461371
H	 -4.802218126	 -1.109280691	 1.266172651
C	 -3.826971020	 0.332749819	 2.533545515
H	 -4.661945672	 1.032721196	 2.564350602
H	 -3.869097236	 -0.278091178	 3.434196113
H	 -2.905885061	 0.914362726	 2.567945889
