34
0  1  0  1  0  1  17  17 -0.15981  0.16398  0.07669 -0.24710 -0.04850 -0.16602  5.45673  5.45508  5.44865  0.06392 -2.79087  9.64515 -0.91246 -5.87789
C	 2.022140669	 -0.334496834	 2.204430429
H	 1.241394251	 -0.915672495	 2.694845555
H	 2.760078295	 -1.034861467	 1.813269478
H	 2.509548590	 0.275882073	 2.963336453
C	 1.440466892	 0.516940147	 1.083639282
H	 2.233511573	 1.108080205	 0.619777423
H	 0.725438153	 1.233249682	 1.495498298
C	 0.750163732	 -0.317525122	 0.013263904
H	 1.463980442	 -1.036777589	 -0.399381065
H	 -0.047774893	 -0.907659441	 0.473754697
C	 0.168408379	 0.518052444	 -1.118959304
H	 0.966659076	 1.109574664	 -1.573325945
H	 -0.545752526	 1.234036017	 -0.705018598
C	 -0.511403452	 -0.332496142	 -2.183788196
H	 -1.326162962	 -0.914379035	 -1.753153699
H	 -0.925337686	 0.278450481	 -2.984664953
H	 0.196471265	 -1.032225592	 -2.628078222
C	 -3.827087202	 0.334806113	 -2.533166477
H	 -4.662587261	 1.034183879	 -2.563195243
H	 -2.906451553	 0.917186404	 -2.566589939
H	 -3.868563953	 -0.274935361	 -3.434538831
C	 -3.883241625	 -0.517288220	 -1.272098674
H	 -3.057686444	 -1.233162050	 -1.271536440
H	 -4.801664148	 -1.108947156	 -1.267096468
C	 -3.820977651	 0.317159146	 -0.000000000
H	 -2.899732114	 0.907329042	 0.000225167
H	 -4.645506886	 1.036398234	 0.000067356
C	 -3.883537859	 -0.518071519	 1.271680846
H	 -3.058309946	 -1.234278887	 1.270461371
H	 -4.802218126	 -1.109280691	 1.266172651
C	 -3.826971020	 0.332749819	 2.533545515
H	 -4.661945672	 1.032721196	 2.564350602
H	 -3.869097236	 -0.278091178	 3.434196113
H	 -2.905885061	 0.914362726	 2.567945889
