34
0  1  0  1  0  1  17  17 -1.57182 -1.44431 -1.46580 -1.59330 -1.53969 -1.57116  1.04467  1.04509  1.04397 -1.54869 -0.52609  1.83998 -0.15670 -2.70588
C	 2.535614127	 -0.334485042	 2.204430269
H	 1.754867709	 -0.915660703	 2.694845395
H	 3.273551753	 -1.034849675	 1.813269318
H	 3.023022048	 0.275893865	 2.963336293
C	 1.953940350	 0.516951939	 1.083639122
H	 2.746985031	 1.108091997	 0.619777263
H	 1.238911611	 1.233261474	 1.495498138
C	 1.263637190	 -0.317513330	 0.013263744
H	 1.977453900	 -1.036765797	 -0.399381225
H	 0.465698565	 -0.907647649	 0.473754537
C	 0.681881837	 0.518064236	 -1.118959464
H	 1.480132534	 1.109586456	 -1.573326105
H	 -0.032279068	 1.234047809	 -0.705018758
C	 0.002070006	 -0.332484350	 -2.183788356
H	 -0.812689504	 -0.914367243	 -1.753153859
H	 -0.411864228	 0.278462273	 -2.984665113
H	 0.709944723	 -1.032213800	 -2.628078382
C	 -3.827087202	 0.334806113	 -2.533166477
H	 -4.662587261	 1.034183879	 -2.563195243
H	 -2.906451553	 0.917186404	 -2.566589939
H	 -3.868563953	 -0.274935361	 -3.434538831
C	 -3.883241625	 -0.517288220	 -1.272098674
H	 -3.057686444	 -1.233162050	 -1.271536440
H	 -4.801664148	 -1.108947156	 -1.267096468
C	 -3.820977651	 0.317159146	 -0.000000000
H	 -2.899732114	 0.907329042	 0.000225167
H	 -4.645506886	 1.036398234	 0.000067356
C	 -3.883537859	 -0.518071519	 1.271680846
H	 -3.058309946	 -1.234278887	 1.270461371
H	 -4.802218126	 -1.109280691	 1.266172651
C	 -3.826971020	 0.332749819	 2.533545515
H	 -4.661945672	 1.032721196	 2.564350602
H	 -3.869097236	 -0.278091178	 3.434196113
H	 -2.905885061	 0.914362726	 2.567945889
