34
0  1  0  1  0  1  17  17 -2.58288 -2.33643 -2.45239 -2.69883 -2.59025 -2.65400  2.23138  2.22945  2.22715 -2.53713 -1.27581  4.20604 -0.40196 -5.06540
C	 -3.545539141	 -2.203156503	 -2.533432666
H	 -2.457035518	 -2.245792492	 -2.567771414
H	 -3.918187705	 -3.227016670	 -2.563646158
H	 -3.887668588	 -1.695880179	 -3.434368522
C	 -4.020319102	 -1.494116101	 -1.271962172
H	 -5.111530718	 -1.441537678	 -1.266768358
H	 -3.663862129	 -0.461192566	 -1.271128173
C	 -3.548845232	 -2.185468030	 0.000161677
H	 -3.903262044	 -3.220611883	 0.000614348
H	 -2.455925741	 -2.235899084	 0.000334265
C	 -4.020584531	 -1.492984976	 1.271573415
H	 -5.111780191	 -1.439956058	 1.265941120
H	 -3.663714054	 -0.460199093	 1.270170700
C	 -3.546535800	 -2.201421724	 2.533648201
H	 -2.458054514	 -2.244887250	 2.568087542
H	 -3.888348244	 -1.693306836	 3.434194935
H	 -3.919960337	 -3.224996454	 2.564477292
C	 -0.020707161	 0.334806113	 2.533166477
H	 0.814792899	 1.034183879	 2.563195243
H	 -0.941342809	 0.917186404	 2.566589939
H	 0.020769591	 -0.274935361	 3.434538831
C	 0.035447263	 -0.517288220	 1.272098674
H	 -0.790107918	 -1.233162050	 1.271536440
H	 0.953869786	 -1.108947156	 1.267096468
C	 -0.026816711	 0.317159146	 -0.000000000
H	 -0.948062248	 0.907329042	 -0.000225167
H	 0.797712523	 1.036398234	 -0.000067356
C	 0.035743497	 -0.518071519	 -1.271680846
H	 -0.789484416	 -1.234278887	 -1.270461371
H	 0.954423764	 -1.109280691	 -1.266172651
C	 -0.020823342	 0.332749819	 -2.533545515
H	 0.814151310	 1.032721196	 -2.564350602
H	 0.021302874	 -0.278091178	 -3.434196113
H	 -0.941909301	 0.914362726	 -2.567945889
