34
0  1  0  1  0  1  17  17 -1.55661 -1.33750 -1.39776 -1.61688 -1.50292 -1.57007  2.46442  2.46260  2.45960 -1.46201 -1.34395  4.41231 -0.34710 -4.18327
C	 -5.650326278	 -0.334490938	 -0.376728027
H	 -4.869579860	 -0.915666599	 -0.867143153
H	 -6.388263904	 -1.034855571	 0.014432924
H	 -6.137734199	 0.275887969	 -1.135634051
C	 -5.068652501	 0.516946043	 0.744063120
H	 -5.861697182	 1.108086101	 1.207924979
H	 -4.353623762	 1.233255578	 0.332204104
C	 -4.378349341	 -0.317519226	 1.814438498
H	 -5.092166051	 -1.036771693	 2.227083467
H	 -3.580410716	 -0.907653545	 1.353947705
C	 -3.796593988	 0.518058340	 2.946661707
H	 -4.594844686	 1.109580560	 3.401028348
H	 -3.082433083	 1.234041913	 2.532721000
C	 -3.116782157	 -0.332490246	 4.011490598
H	 -2.302022647	 -0.914373139	 3.580856101
H	 -2.702847923	 0.278456377	 4.812367355
H	 -3.824656874	 -1.032219696	 4.455780624
C	 -0.020707161	 0.334806113	 2.533166477
H	 0.814792899	 1.034183879	 2.563195243
H	 -0.941342809	 0.917186404	 2.566589939
H	 0.020769591	 -0.274935361	 3.434538831
C	 0.035447263	 -0.517288220	 1.272098674
H	 -0.790107918	 -1.233162050	 1.271536440
H	 0.953869786	 -1.108947156	 1.267096468
C	 -0.026816711	 0.317159146	 -0.000000000
H	 -0.948062248	 0.907329042	 -0.000225167
H	 0.797712523	 1.036398234	 -0.000067356
C	 0.035743497	 -0.518071519	 -1.271680846
H	 -0.789484416	 -1.234278887	 -1.270461371
H	 0.954423764	 -1.109280691	 -1.266172651
C	 -0.020823342	 0.332749819	 -2.533545515
H	 0.814151310	 1.032721196	 -2.564350602
H	 0.021302874	 -0.278091178	 -3.434196113
H	 -0.941909301	 0.914362726	 -2.567945889
