34
0  1  0  1  0  1  17  17 14.20083 15.05480 14.54244 13.68846 14.35463 13.95638 26.70917 26.70367 26.67257 14.53229 -13.35969 46.39982 -4.91985 -13.58799
C	 1.508667211	 -0.334508626	 2.204430590
H	 0.727920793	 -0.915684287	 2.694845716
H	 2.246604837	 -1.034873259	 1.813269639
H	 1.996075132	 0.275870281	 2.963336614
C	 0.926993434	 0.516928355	 1.083639443
H	 1.720038115	 1.108068413	 0.619777584
H	 0.211964695	 1.233237890	 1.495498459
C	 0.236690274	 -0.317536914	 0.013264065
H	 0.950506984	 -1.036789381	 -0.399380904
H	 -0.561248351	 -0.907671233	 0.473754858
C	 -0.345065079	 0.518040652	 -1.118959143
H	 0.453185618	 1.109562872	 -1.573325784
H	 -1.059225984	 1.234024225	 -0.705018437
C	 -1.024876910	 -0.332507934	 -2.183788035
H	 -1.839636420	 -0.914390827	 -1.753153538
H	 -1.438811144	 0.278438689	 -2.984664792
H	 -0.317002193	 -1.032237384	 -2.628078061
C	 -3.827087202	 0.334806113	 -2.533166477
H	 -4.662587261	 1.034183879	 -2.563195243
H	 -2.906451553	 0.917186404	 -2.566589939
H	 -3.868563953	 -0.274935361	 -3.434538831
C	 -3.883241625	 -0.517288220	 -1.272098674
H	 -3.057686444	 -1.233162050	 -1.271536440
H	 -4.801664148	 -1.108947156	 -1.267096468
C	 -3.820977651	 0.317159146	 -0.000000000
H	 -2.899732114	 0.907329042	 0.000225167
H	 -4.645506886	 1.036398234	 0.000067356
C	 -3.883537859	 -0.518071519	 1.271680846
H	 -3.058309946	 -1.234278887	 1.270461371
H	 -4.802218126	 -1.109280691	 1.266172651
C	 -3.826971020	 0.332749819	 2.533545515
H	 -4.661945672	 1.032721196	 2.564350602
H	 -3.869097236	 -0.278091178	 3.434196113
H	 -2.905885061	 0.914362726	 2.567945889
