34
0  1  0  1  0  1  17  17 -1.40961 -1.20725 -1.24421 -1.44657 -1.34283 -1.40383  2.40081  2.40063  2.39820 -1.31569 -1.22542  4.24682 -0.38027 -3.95682
C	 2.278877398	 -0.334490938	 2.204430349
H	 1.498130980	 -0.915666599	 2.694845475
H	 3.016815024	 -1.034855571	 1.813269398
H	 2.766285319	 0.275887969	 2.963336373
C	 1.697203621	 0.516946043	 1.083639202
H	 2.490248302	 1.108086101	 0.619777343
H	 0.982174882	 1.233255578	 1.495498218
C	 1.006900461	 -0.317519226	 0.013263824
H	 1.720717171	 -1.036771693	 -0.399381145
H	 0.208961836	 -0.907653545	 0.473754617
C	 0.425145108	 0.518058340	 -1.118959384
H	 1.223395805	 1.109580560	 -1.573326025
H	 -0.289015797	 1.234041913	 -0.705018678
C	 -0.254666723	 -0.332490246	 -2.183788276
H	 -1.069426233	 -0.914373139	 -1.753153779
H	 -0.668600957	 0.278456377	 -2.984665033
H	 0.453207994	 -1.032219696	 -2.628078302
C	 -3.827087202	 0.334806113	 -2.533166477
H	 -4.662587261	 1.034183879	 -2.563195243
H	 -2.906451553	 0.917186404	 -2.566589939
H	 -3.868563953	 -0.274935361	 -3.434538831
C	 -3.883241625	 -0.517288220	 -1.272098674
H	 -3.057686444	 -1.233162050	 -1.271536440
H	 -4.801664148	 -1.108947156	 -1.267096468
C	 -3.820977651	 0.317159146	 -0.000000000
H	 -2.899732114	 0.907329042	 0.000225167
H	 -4.645506886	 1.036398234	 0.000067356
C	 -3.883537859	 -0.518071519	 1.271680846
H	 -3.058309946	 -1.234278887	 1.270461371
H	 -4.802218126	 -1.109280691	 1.266172651
C	 -3.826971020	 0.332749819	 2.533545515
H	 -4.661945672	 1.032721196	 2.564350602
H	 -3.869097236	 -0.278091178	 3.434196113
H	 -2.905885061	 0.914362726	 2.567945889
