34
0  1  0  1  0  1  17  17 -2.39407 -2.03996 -2.22508 -2.57919 -2.39652 -2.50397  4.10613  4.10095  4.09658 -2.27659 -2.39404  7.75089 -0.75454 -6.87891
C	 -3.358996465	 -2.106967062	 -2.533432663
H	 -2.270492842	 -2.149603051	 -2.567771411
H	 -3.731645029	 -3.130827229	 -2.563646155
H	 -3.701125912	 -1.599690738	 -3.434368519
C	 -3.833776426	 -1.397926660	 -1.271962169
H	 -4.924988042	 -1.345348237	 -1.266768355
H	 -3.477319453	 -0.365003125	 -1.271128170
C	 -3.362302556	 -2.089278589	 0.000161680
H	 -3.716719368	 -3.124422442	 0.000614351
H	 -2.269383065	 -2.139709643	 0.000334268
C	 -3.834041855	 -1.396795535	 1.271573418
H	 -4.925237515	 -1.343766617	 1.265941123
H	 -3.477171378	 -0.364009652	 1.270170703
C	 -3.359993124	 -2.105232283	 2.533648204
H	 -2.271511838	 -2.148697809	 2.568087545
H	 -3.701805568	 -1.597117395	 3.434194938
H	 -3.733417661	 -3.128807013	 2.564477295
C	 -0.020707161	 0.334806113	 2.533166477
H	 0.814792899	 1.034183879	 2.563195243
H	 -0.941342809	 0.917186404	 2.566589939
H	 0.020769591	 -0.274935361	 3.434538831
C	 0.035447263	 -0.517288220	 1.272098674
H	 -0.790107918	 -1.233162050	 1.271536440
H	 0.953869786	 -1.108947156	 1.267096468
C	 -0.026816711	 0.317159146	 -0.000000000
H	 -0.948062248	 0.907329042	 -0.000225167
H	 0.797712523	 1.036398234	 -0.000067356
C	 0.035743497	 -0.518071519	 -1.271680846
H	 -0.789484416	 -1.234278887	 -1.270461371
H	 0.954423764	 -1.109280691	 -1.266172651
C	 -0.020823342	 0.332749819	 -2.533545515
H	 0.814151310	 1.032721196	 -2.564350602
H	 0.021302874	 -0.278091178	 -3.434196113
H	 -0.941909301	 0.914362726	 -2.567945889
