34
0  1  0  1  0  1  17  17 -1.37028 -1.29000 -1.30855 -1.38883 -1.36134 -1.37748  0.45269  0.45304  0.45245 -1.37822 -0.22057  0.78727 -0.06427 -1.88064
C	 0.258640061	 -0.334479146	 2.183603912
H	 -0.556445105	 -0.915654807	 1.752665243
H	 0.966364195	 -1.034843779	 2.627096167
H	 -0.154887874	 0.275899761	 2.985164566
C	 0.938436778	 0.516957835	 1.119464071
H	 1.736675273	 1.108097893	 1.574329981
H	 0.224242038	 1.233267370	 0.706160526
C	 1.520257467	 -0.317507434	 -0.013543691
H	 2.234526848	 -1.036759901	 0.398317229
H	 0.722491430	 -0.907641753	 -0.474333415
C	 2.209913852	 0.518070132	 -1.083470210
H	 3.002532254	 1.109592352	 -0.619348148
H	 1.494350232	 1.234053705	 -1.494981343
C	 2.792176807	 -0.332478454	 -2.204618971
H	 2.011856638	 -0.914361347	 -2.694904156
H	 3.278789307	 0.278468169	 -2.963534912
H	 3.530880615	 -1.032207904	 -1.813726496
C	 -3.827087202	 0.334806113	 -2.533166477
H	 -4.662587261	 1.034183879	 -2.563195243
H	 -2.906451553	 0.917186404	 -2.566589939
H	 -3.868563953	 -0.274935361	 -3.434538831
C	 -3.883241625	 -0.517288220	 -1.272098674
H	 -3.057686444	 -1.233162050	 -1.271536440
H	 -4.801664148	 -1.108947156	 -1.267096468
C	 -3.820977651	 0.317159146	 -0.000000000
H	 -2.899732114	 0.907329042	 0.000225167
H	 -4.645506886	 1.036398234	 0.000067356
C	 -3.883537859	 -0.518071519	 1.271680846
H	 -3.058309946	 -1.234278887	 1.270461371
H	 -4.802218126	 -1.109280691	 1.266172651
C	 -3.826971020	 0.332749819	 2.533545515
H	 -4.661945672	 1.032721196	 2.564350602
H	 -3.869097236	 -0.278091178	 3.434196113
H	 -2.905885061	 0.914362726	 2.567945889
