34
0  1  0  1  0  1  17  17 -2.65299 -2.40619 -2.53173 -2.77853 -2.66892 -2.73338  2.16958  2.16710  2.16451 -2.60639 -1.28135  4.12737 -0.38517 -5.06724
C	 0.501819776	 -0.300085765	 2.533432666
H	 -0.005508186	 -1.264075549	 2.567771414
H	 1.574832973	 -0.489292726	 2.563646158
H	 0.233570316	 0.249845189	 3.434368522
C	 0.125162756	 0.465605943	 1.271962172
H	 0.625234314	 1.436912135	 1.266768358
H	 -0.947603752	 0.673366917	 1.271128173
C	 0.488154155	 -0.288378370	 -0.000161677
H	 1.561823434	 -0.499016334	 -0.000614348
H	 -0.014631017	 -1.260089941	 -0.000334265
C	 0.124315887	 0.466401373	 -1.271573415
H	 0.623989327	 1.437918994	 -1.265941120
H	 -0.948538162	 0.673735417	 -1.270170700
C	 0.500815743	 -0.298355244	 -2.533648201
H	 -0.005782650	 -1.262740452	 -2.568087542
H	 0.231681564	 0.251720460	 -3.434194935
H	 1.573969730	 -0.486747473	 -2.564477292
C	 -3.827087202	 0.334806113	 -2.533166477
H	 -4.662587261	 1.034183879	 -2.563195243
H	 -2.906451553	 0.917186404	 -2.566589939
H	 -3.868563953	 -0.274935361	 -3.434538831
C	 -3.883241625	 -0.517288220	 -1.272098674
H	 -3.057686444	 -1.233162050	 -1.271536440
H	 -4.801664148	 -1.108947156	 -1.267096468
C	 -3.820977651	 0.317159146	 -0.000000000
H	 -2.899732114	 0.907329042	 0.000225167
H	 -4.645506886	 1.036398234	 0.000067356
C	 -3.883537859	 -0.518071519	 1.271680846
H	 -3.058309946	 -1.234278887	 1.270461371
H	 -4.802218126	 -1.109280691	 1.266172651
C	 -3.826971020	 0.332749819	 2.533545515
H	 -4.661945672	 1.032721196	 2.564350602
H	 -3.869097236	 -0.278091178	 3.434196113
H	 -2.905885061	 0.914362726	 2.567945889
