34
0  1  0  1  0  1  17  17 -2.06880 -1.94890 -2.01402 -2.13392 -2.09614 -2.11841  0.62053  0.61950  0.61849 -2.09189 -0.34646  1.16029 -0.10309 -2.80263
C	 0.921858235	 -0.300074596	 2.533432672
H	 0.414530273	 -1.264064380	 2.567771420
H	 1.994871432	 -0.489281557	 2.563646164
H	 0.653608775	 0.249856358	 3.434368528
C	 0.545201215	 0.465617112	 1.271962178
H	 1.045272773	 1.436923304	 1.266768364
H	 -0.527565293	 0.673378086	 1.271128179
C	 0.908192614	 -0.288367201	 -0.000161671
H	 1.981861893	 -0.499005165	 -0.000614342
H	 0.405407442	 -1.260078772	 -0.000334259
C	 0.544354346	 0.466412542	 -1.271573409
H	 1.044027786	 1.437930163	 -1.265941114
H	 -0.528499703	 0.673746586	 -1.270170694
C	 0.920854202	 -0.298344075	 -2.533648195
H	 0.414255809	 -1.262729283	 -2.568087536
H	 0.651720023	 0.251731629	 -3.434194929
H	 1.994008189	 -0.486736304	 -2.564477286
C	 -3.827087202	 0.334806113	 -2.533166477
H	 -4.662587261	 1.034183879	 -2.563195243
H	 -2.906451553	 0.917186404	 -2.566589939
H	 -3.868563953	 -0.274935361	 -3.434538831
C	 -3.883241625	 -0.517288220	 -1.272098674
H	 -3.057686444	 -1.233162050	 -1.271536440
H	 -4.801664148	 -1.108947156	 -1.267096468
C	 -3.820977651	 0.317159146	 -0.000000000
H	 -2.899732114	 0.907329042	 0.000225167
H	 -4.645506886	 1.036398234	 0.000067356
C	 -3.883537859	 -0.518071519	 1.271680846
H	 -3.058309946	 -1.234278887	 1.270461371
H	 -4.802218126	 -1.109280691	 1.266172651
C	 -3.826971020	 0.332749819	 2.533545515
H	 -4.661945672	 1.032721196	 2.564350602
H	 -3.869097236	 -0.278091178	 3.434196113
H	 -2.905885061	 0.914362726	 2.567945889
