34
0  1  0  1  0  1  17  17 -2.38214 -2.20950 -2.28894 -2.46158 -2.39763 -2.43521  1.20146  1.20068  1.19924 -2.38043 -0.66790  2.24962 -0.20965 -3.75249
C	 -3.732081817	 -2.299345944	 -2.533432669
H	 -2.643578194	 -2.341981933	 -2.567771417
H	 -4.104730381	 -3.323206111	 -2.563646161
H	 -4.074211264	 -1.792069620	 -3.434368525
C	 -4.206861778	 -1.590305542	 -1.271962175
H	 -5.298073394	 -1.537727119	 -1.266768361
H	 -3.850404805	 -0.557382007	 -1.271128176
C	 -3.735387908	 -2.281657471	 0.000161674
H	 -4.089804720	 -3.316801324	 0.000614345
H	 -2.642468417	 -2.332088525	 0.000334262
C	 -4.207127207	 -1.589174417	 1.271573412
H	 -5.298322867	 -1.536145499	 1.265941117
H	 -3.850256730	 -0.556388534	 1.270170697
C	 -3.733078476	 -2.297611165	 2.533648198
H	 -2.644597190	 -2.341076691	 2.568087539
H	 -4.074890920	 -1.789496277	 3.434194932
H	 -4.106503013	 -3.321185895	 2.564477289
C	 -0.020707161	 0.334806113	 2.533166477
H	 0.814792899	 1.034183879	 2.563195243
H	 -0.941342809	 0.917186404	 2.566589939
H	 0.020769591	 -0.274935361	 3.434538831
C	 0.035447263	 -0.517288220	 1.272098674
H	 -0.790107918	 -1.233162050	 1.271536440
H	 0.953869786	 -1.108947156	 1.267096468
C	 -0.026816711	 0.317159146	 -0.000000000
H	 -0.948062248	 0.907329042	 -0.000225167
H	 0.797712523	 1.036398234	 -0.000067356
C	 0.035743497	 -0.518071519	 -1.271680846
H	 -0.789484416	 -1.234278887	 -1.270461371
H	 0.954423764	 -1.109280691	 -1.266172651
C	 -0.020823342	 0.332749819	 -2.533545515
H	 0.814151310	 1.032721196	 -2.564350602
H	 0.021302874	 -0.278091178	 -3.434196113
H	 -0.941909301	 0.914362726	 -2.567945889
