34
0  1  0  1  0  1  17  17 -1.67468 -1.53487 -1.57047 -1.71027 -1.64902 -1.68508  1.11855  1.11776  1.11623 -1.64994 -0.59959  1.99035 -0.15168 -2.88903
C	 -3.349235966	 -0.334485042	 -4.107501007
H	 -2.534150800	 -0.915660703	 -3.676562338
H	 -4.056960100	 -1.034849675	 -4.550993262
H	 -2.935708031	 0.275893865	 -4.909061661
C	 -4.029032683	 0.516951939	 -3.043361166
H	 -4.827271178	 1.108091997	 -3.498227076
H	 -3.314837943	 1.233261474	 -2.630057621
C	 -4.610853372	 -0.317513330	 -1.910353404
H	 -5.325122753	 -1.036765797	 -2.322214324
H	 -3.813087335	 -0.907647649	 -1.449563681
C	 -5.300509757	 0.518064236	 -0.840426885
H	 -6.093128160	 1.109586456	 -1.304548947
H	 -4.584946137	 1.234047809	 -0.428915752
C	 -5.882772712	 -0.332484350	 0.280721876
H	 -5.102452543	 -0.914367243	 0.771007061
H	 -6.369385212	 0.278462273	 1.039637817
H	 -6.621476520	 -1.032213800	 -0.110170599
C	 -0.020707161	 0.334806113	 2.533166477
H	 0.814792899	 1.034183879	 2.563195243
H	 -0.941342809	 0.917186404	 2.566589939
H	 0.020769591	 -0.274935361	 3.434538831
C	 0.035447263	 -0.517288220	 1.272098674
H	 -0.790107918	 -1.233162050	 1.271536440
H	 0.953869786	 -1.108947156	 1.267096468
C	 -0.026816711	 0.317159146	 -0.000000000
H	 -0.948062248	 0.907329042	 -0.000225167
H	 0.797712523	 1.036398234	 -0.000067356
C	 0.035743497	 -0.518071519	 -1.271680846
H	 -0.789484416	 -1.234278887	 -1.270461371
H	 0.954423764	 -1.109280691	 -1.266172651
C	 -0.020823342	 0.332749819	 -2.533545515
H	 0.814151310	 1.032721196	 -2.564350602
H	 0.021302874	 -0.278091178	 -3.434196113
H	 -0.941909301	 0.914362726	 -2.567945889
