34
0  1  0  1  0  1  17  17 -1.99838 -1.26134 -1.75688 -2.49392 -2.04952 -2.31127 10.19236 10.17829 10.16685 -1.58586 -6.09597 18.94363 -1.53077 -12.90276
C	 2.533558490	 0.302480638	 4.147525255
H	 2.568142977	 0.902287336	 3.238199707
H	 2.564061801	 0.985687215	 4.996270076
H	 3.434239181	 -0.309016668	 4.177734195
C	 1.271732288	 -0.549406633	 4.186829507
H	 1.266288578	 -1.159134346	 5.093326467
H	 1.270601776	 -1.248760377	 3.347248445
C	 -0.000042702	 0.286692467	 4.141213067
H	 -0.000197629	 0.989002445	 4.980197541
H	 0.000034194	 0.895468886	 3.232143432
C	 -1.271803541	 -0.549449512	 4.186484605
H	 -1.266421301	 -1.159558961	 5.092734708
H	 -1.270697201	 -1.248472404	 3.346620952
C	 -2.533522771	 0.302596797	 4.147506899
H	 -2.567716073	 0.903130465	 3.238630141
H	 -3.434324747	 -0.308701558	 4.177020081
H	 -2.564062305	 0.985183037	 4.996768289
C	 -2.533308650	 -0.294879067	 0.713148758
H	 -2.563626820	 -0.977081809	 -0.136422641
H	 -2.566978352	 -0.895875900	 1.621731768
H	 -3.434426110	 0.315957131	 0.684104472
C	 -1.271884866	 0.557655468	 0.674354677
H	 -1.271026303	 1.256565714	 1.514319405
H	 -1.266632549	 1.167895814	 -0.231826531
C	 -0.000135043	 -0.278418218	 0.719603148
H	 -0.000159375	 -0.887229516	 1.628637086
H	 -0.000365425	 -0.980714184	 -0.119404392
C	 1.271894760	 0.557382187	 0.674061079
H	 1.270971755	 1.256633312	 1.513705410
H	 1.266636490	 1.167182502	 -0.232386925
C	 2.533403758	 -0.294941760	 0.713280149
H	 2.563919186	 -0.977774101	 -0.135778362
H	 3.434309555	 0.316254316	 0.683599450
H	 2.567558205	 -0.895208868	 1.622328649
