34
0  1  0  1  0  1  17  17  7.27191  8.35385  7.43637  6.35444  7.13212  6.66858 23.42686 23.40761 23.37456  7.69168 -14.15895 43.68097 -4.21603 -17.61431
C	 -2.799368435	 -1.818398741	 -2.533432654
H	 -1.710864812	 -1.861034730	 -2.567771402
H	 -3.172016999	 -2.842258908	 -2.563646146
H	 -3.141497882	 -1.311122417	 -3.434368510
C	 -3.274148396	 -1.109358339	 -1.271962160
H	 -4.365360012	 -1.056779916	 -1.266768346
H	 -2.917691423	 -0.076434804	 -1.271128161
C	 -2.802674526	 -1.800710268	 0.000161689
H	 -3.157091338	 -2.835854121	 0.000614360
H	 -1.709755035	 -1.851141322	 0.000334277
C	 -3.274413825	 -1.108227214	 1.271573427
H	 -4.365609485	 -1.055198296	 1.265941132
H	 -2.917543348	 -0.075441331	 1.270170712
C	 -2.800365094	 -1.816663962	 2.533648213
H	 -1.711883808	 -1.860129488	 2.568087554
H	 -3.142177538	 -1.308549074	 3.434194947
H	 -3.173789631	 -2.840238692	 2.564477304
C	 -0.020707161	 0.334806113	 2.533166477
H	 0.814792899	 1.034183879	 2.563195243
H	 -0.941342809	 0.917186404	 2.566589939
H	 0.020769591	 -0.274935361	 3.434538831
C	 0.035447263	 -0.517288220	 1.272098674
H	 -0.790107918	 -1.233162050	 1.271536440
H	 0.953869786	 -1.108947156	 1.267096468
C	 -0.026816711	 0.317159146	 -0.000000000
H	 -0.948062248	 0.907329042	 -0.000225167
H	 0.797712523	 1.036398234	 -0.000067356
C	 0.035743497	 -0.518071519	 -1.271680846
H	 -0.789484416	 -1.234278887	 -1.270461371
H	 0.954423764	 -1.109280691	 -1.266172651
C	 -0.020823342	 0.332749819	 -2.533545515
H	 0.814151310	 1.032721196	 -2.564350602
H	 0.021302874	 -0.278091178	 -3.434196113
H	 -0.941909301	 0.914362726	 -2.567945889
