34
0  1  0  1  0  1  17  17 -0.15986  0.16398  0.07668 -0.24716 -0.04854 -0.16608  5.45750  5.45585  5.44942  0.06396 -2.79164  9.64679 -0.91239 -5.87880
C	 -0.511530391	 -0.334496834	 2.183603654
H	 -1.326615557	 -0.915672495	 1.752664985
H	 0.196193743	 -1.034861467	 2.627095909
H	 -0.925058326	 0.275882073	 2.985164308
C	 0.168266326	 0.516940147	 1.119463813
H	 0.966504821	 1.108080205	 1.574329723
H	 -0.545928414	 1.233249682	 0.706160268
C	 0.750087015	 -0.317525122	 -0.013543949
H	 1.464356396	 -1.036777589	 0.398316971
H	 -0.047679022	 -0.907659441	 -0.474333673
C	 1.439743400	 0.518052444	 -1.083470468
H	 2.232361802	 1.109574664	 -0.619348406
H	 0.724179780	 1.234036017	 -1.494981601
C	 2.022006355	 -0.332496142	 -2.204619229
H	 1.241686186	 -0.914379035	 -2.694904414
H	 2.508618855	 0.278450481	 -2.963535170
H	 2.760710163	 -1.032225592	 -1.813726754
C	 -3.827087202	 0.334806113	 -2.533166477
H	 -4.662587261	 1.034183879	 -2.563195243
H	 -2.906451553	 0.917186404	 -2.566589939
H	 -3.868563953	 -0.274935361	 -3.434538831
C	 -3.883241625	 -0.517288220	 -1.272098674
H	 -3.057686444	 -1.233162050	 -1.271536440
H	 -4.801664148	 -1.108947156	 -1.267096468
C	 -3.820977651	 0.317159146	 -0.000000000
H	 -2.899732114	 0.907329042	 0.000225167
H	 -4.645506886	 1.036398234	 0.000067356
C	 -3.883537859	 -0.518071519	 1.271680846
H	 -3.058309946	 -1.234278887	 1.270461371
H	 -4.802218126	 -1.109280691	 1.266172651
C	 -3.826971020	 0.332749819	 2.533545515
H	 -4.661945672	 1.032721196	 2.564350602
H	 -3.869097236	 -0.278091178	 3.434196113
H	 -2.905885061	 0.914362726	 2.567945889
