34
0  1  0  1  0  1  17  17  7.94564  9.12135  8.19165  7.01594  7.87345  7.36717 24.60581 24.58845 24.56350  8.71328 -15.70718 46.41024 -4.00194 -17.98784
C	 -3.149121146	 1.239009642	 -2.533432654
H	 -2.641793184	 0.275019858	 -2.567771402
H	 -4.222134343	 1.049802681	 -2.563646146
H	 -2.880871686	 1.788940596	 -3.434368510
C	 -2.772464126	 2.004701350	 -1.271962160
H	 -3.272535684	 2.976007542	 -1.266768346
H	 -1.699697618	 2.212462324	 -1.271128161
C	 -3.135455525	 1.250717037	 0.000161689
H	 -4.209124804	 1.040079073	 0.000614360
H	 -2.632670353	 0.279005467	 0.000334277
C	 -2.771617258	 2.005496781	 1.271573427
H	 -3.271290698	 2.977014402	 1.265941132
H	 -1.698763208	 2.212830824	 1.270170712
C	 -3.148117113	 1.240740163	 2.533648213
H	 -2.641518720	 0.276354955	 2.568087554
H	 -2.878982934	 1.790815867	 3.434194947
H	 -4.221271100	 1.052347934	 2.564477304
C	 -0.020707161	 0.334806113	 2.533166477
H	 0.814792899	 1.034183879	 2.563195243
H	 -0.941342809	 0.917186404	 2.566589939
H	 0.020769591	 -0.274935361	 3.434538831
C	 0.035447263	 -0.517288220	 1.272098674
H	 -0.790107918	 -1.233162050	 1.271536440
H	 0.953869786	 -1.108947156	 1.267096468
C	 -0.026816711	 0.317159146	 -0.000000000
H	 -0.948062248	 0.907329042	 -0.000225167
H	 0.797712523	 1.036398234	 -0.000067356
C	 0.035743497	 -0.518071519	 -1.271680846
H	 -0.789484416	 -1.234278887	 -1.270461371
H	 0.954423764	 -1.109280691	 -1.266172651
C	 -0.020823342	 0.332749819	 -2.533545515
H	 0.814151310	 1.032721196	 -2.564350602
H	 0.021302874	 -0.278091178	 -3.434196113
H	 -0.941909301	 0.914362726	 -2.567945889
