34
0  1  0  1  0  1  17  17 -2.17050 -2.04383 -2.10325 -2.22992 -2.18891 -2.21291  0.53289  0.53122  0.53053 -2.18877 -0.35916  1.05574 -0.08640 -2.79895
C	 -4.274080495	 1.816212303	 -2.533432672
H	 -3.766752533	 0.852222519	 -2.567771420
H	 -5.347093692	 1.627005342	 -2.563646164
H	 -4.005831035	 2.366143257	 -3.434368528
C	 -3.897423475	 2.581904011	 -1.271962178
H	 -4.397495033	 3.553210203	 -1.266768364
H	 -2.824656967	 2.789664985	 -1.271128179
C	 -4.260414874	 1.827919698	 0.000161671
H	 -5.334084153	 1.617281734	 0.000614342
H	 -3.757629702	 0.856208128	 0.000334259
C	 -3.896576607	 2.582699442	 1.271573409
H	 -4.396250047	 3.554217063	 1.265941114
H	 -2.823722557	 2.790033485	 1.270170694
C	 -4.273076462	 1.817942824	 2.533648195
H	 -3.766478069	 0.853557616	 2.568087536
H	 -4.003942283	 2.368018528	 3.434194929
H	 -5.346230449	 1.629550595	 2.564477286
C	 -0.020707161	 0.334806113	 2.533166477
H	 0.814792899	 1.034183879	 2.563195243
H	 -0.941342809	 0.917186404	 2.566589939
H	 0.020769591	 -0.274935361	 3.434538831
C	 0.035447263	 -0.517288220	 1.272098674
H	 -0.790107918	 -1.233162050	 1.271536440
H	 0.953869786	 -1.108947156	 1.267096468
C	 -0.026816711	 0.317159146	 -0.000000000
H	 -0.948062248	 0.907329042	 -0.000225167
H	 0.797712523	 1.036398234	 -0.000067356
C	 0.035743497	 -0.518071519	 -1.271680846
H	 -0.789484416	 -1.234278887	 -1.270461371
H	 0.954423764	 -1.109280691	 -1.266172651
C	 -0.020823342	 0.332749819	 -2.533545515
H	 0.814151310	 1.032721196	 -2.564350602
H	 0.021302874	 -0.278091178	 -3.434196113
H	 -0.941909301	 0.914362726	 -2.567945889
