34
0  1  0  1  0  1  17  17 -0.47165 -0.12594 -0.24766 -0.59336 -0.38327 -0.50736  5.36169  5.35822  5.35198 -0.24666 -2.95505  9.61172 -0.78001 -6.12332
C	 -5.418660364	 -0.334496834	 -0.472922966
H	 -4.637913946	 -0.915672495	 -0.963338092
H	 -6.156597990	 -1.034861467	 -0.081762015
H	 -5.906068285	 0.275882073	 -1.231828990
C	 -4.836986587	 0.516940147	 0.647868181
H	 -5.630031268	 1.108080205	 1.111730040
H	 -4.121957848	 1.233249682	 0.236009165
C	 -4.146683427	 -0.317525122	 1.718243559
H	 -4.860500137	 -1.036777589	 2.130888528
H	 -3.348744802	 -0.907659441	 1.257752766
C	 -3.564928074	 0.518052444	 2.850466768
H	 -4.363178772	 1.109574664	 3.304833409
H	 -2.850767169	 1.234036017	 2.436526061
C	 -2.885116243	 -0.332496142	 3.915295659
H	 -2.070356733	 -0.914379035	 3.484661162
H	 -2.471182009	 0.278450481	 4.716172416
H	 -3.592990960	 -1.032225592	 4.359585685
C	 -0.020707161	 0.334806113	 2.533166477
H	 0.814792899	 1.034183879	 2.563195243
H	 -0.941342809	 0.917186404	 2.566589939
H	 0.020769591	 -0.274935361	 3.434538831
C	 0.035447263	 -0.517288220	 1.272098674
H	 -0.790107918	 -1.233162050	 1.271536440
H	 0.953869786	 -1.108947156	 1.267096468
C	 -0.026816711	 0.317159146	 -0.000000000
H	 -0.948062248	 0.907329042	 -0.000225167
H	 0.797712523	 1.036398234	 -0.000067356
C	 0.035743497	 -0.518071519	 -1.271680846
H	 -0.789484416	 -1.234278887	 -1.270461371
H	 0.954423764	 -1.109280691	 -1.266172651
C	 -0.020823342	 0.332749819	 -2.533545515
H	 0.814151310	 1.032721196	 -2.564350602
H	 0.021302874	 -0.278091178	 -3.434196113
H	 -0.941909301	 0.914362726	 -2.567945889
