34
0  1  0  1  0  1  17  17 -1.75645 -1.19517 -1.50245 -2.06374 -1.73419 -1.92908  7.23182  7.21885  7.20849 -1.40916 -4.64142 13.89341 -1.18895 -9.47219
C	 -3.524107595	 1.431410529	 -2.533432660
H	 -3.016779633	 0.467420745	 -2.567771408
H	 -4.597120792	 1.242203568	 -2.563646152
H	 -3.255858135	 1.981341483	 -3.434368516
C	 -3.147450575	 2.197102237	 -1.271962166
H	 -3.647522133	 3.168408429	 -1.266768352
H	 -2.074684067	 2.404863211	 -1.271128167
C	 -3.510441974	 1.443117924	 0.000161683
H	 -4.584111253	 1.232479960	 0.000614354
H	 -3.007656802	 0.471406354	 0.000334271
C	 -3.146603707	 2.197897668	 1.271573421
H	 -3.646277147	 3.169415289	 1.265941126
H	 -2.073749657	 2.405231711	 1.270170706
C	 -3.523103562	 1.433141050	 2.533648207
H	 -3.016505169	 0.468755842	 2.568087548
H	 -3.253969383	 1.983216754	 3.434194941
H	 -4.596257549	 1.244748821	 2.564477298
C	 -0.020707161	 0.334806113	 2.533166477
H	 0.814792899	 1.034183879	 2.563195243
H	 -0.941342809	 0.917186404	 2.566589939
H	 0.020769591	 -0.274935361	 3.434538831
C	 0.035447263	 -0.517288220	 1.272098674
H	 -0.790107918	 -1.233162050	 1.271536440
H	 0.953869786	 -1.108947156	 1.267096468
C	 -0.026816711	 0.317159146	 -0.000000000
H	 -0.948062248	 0.907329042	 -0.000225167
H	 0.797712523	 1.036398234	 -0.000067356
C	 0.035743497	 -0.518071519	 -1.271680846
H	 -0.789484416	 -1.234278887	 -1.270461371
H	 0.954423764	 -1.109280691	 -1.266172651
C	 -0.020823342	 0.332749819	 -2.533545515
H	 0.814151310	 1.032721196	 -2.564350602
H	 0.021302874	 -0.278091178	 -3.434196113
H	 -0.941909301	 0.914362726	 -2.567945889
