34
0  1  0  1  0  1  17  17 -2.47077 -2.29073 -2.35827 -2.53831 -2.47023 -2.51026  1.03424  1.03172  1.03013 -2.45561 -0.67243  2.02596 -0.17294 -3.63621
C	 0.435992549	 -0.279253904	 2.533432669
H	 -0.652511074	 -0.321889893	 2.567771417
H	 0.808641113	 -1.303114071	 2.563646161
H	 0.778121996	 0.228022420	 3.434368525
C	 0.910772510	 0.429786498	 1.271962175
H	 2.001984126	 0.482364921	 1.266768361
H	 0.554315537	 1.462710033	 1.271128176
C	 0.439298640	 -0.261565431	 -0.000161674
H	 0.793715452	 -1.296709284	 -0.000614345
H	 -0.653620851	 -0.311996485	 -0.000334262
C	 0.911037938	 0.430917623	 -1.271573412
H	 2.002233598	 0.483946541	 -1.265941117
H	 0.554167462	 1.463703506	 -1.270170697
C	 0.436989208	 -0.277519125	 -2.533648198
H	 -0.651492078	 -0.320984651	 -2.568087539
H	 0.778801652	 0.230595763	 -3.434194932
H	 0.810413745	 -1.301093855	 -2.564477289
C	 -3.827087202	 0.334806113	 -2.533166477
H	 -4.662587261	 1.034183879	 -2.563195243
H	 -2.906451553	 0.917186404	 -2.566589939
H	 -3.868563953	 -0.274935361	 -3.434538831
C	 -3.883241625	 -0.517288220	 -1.272098674
H	 -3.057686444	 -1.233162050	 -1.271536440
H	 -4.801664148	 -1.108947156	 -1.267096468
C	 -3.820977651	 0.317159146	 -0.000000000
H	 -2.899732114	 0.907329042	 0.000225167
H	 -4.645506886	 1.036398234	 0.000067356
C	 -3.883537859	 -0.518071519	 1.271680846
H	 -3.058309946	 -1.234278887	 1.270461371
H	 -4.802218126	 -1.109280691	 1.266172651
C	 -3.826971020	 0.332749819	 2.533545515
H	 -4.661945672	 1.032721196	 2.564350602
H	 -3.869097236	 -0.278091178	 3.434196113
H	 -2.905885061	 0.914362726	 2.567945889
