34
0  1  0  1  0  1  17  17 89.65446 91.91394 89.75294 87.49346 89.45773 88.27883 117.58839 117.57935 117.47670 84.52506 -53.44592 193.49964 -22.25972 -33.26894
C	 0.995193753	 -0.334520418	 2.204430750
H	 0.214447335	 -0.915696079	 2.694845876
H	 1.733131379	 -1.034885051	 1.813269799
H	 1.482601674	 0.275858489	 2.963336774
C	 0.413519976	 0.516916563	 1.083639603
H	 1.206564657	 1.108056621	 0.619777744
H	 -0.301508763	 1.233226098	 1.495498619
C	 -0.276783184	 -0.317548706	 0.013264225
H	 0.437033526	 -1.036801173	 -0.399380744
H	 -1.074721809	 -0.907683025	 0.473755018
C	 -0.858538537	 0.518028860	 -1.118958983
H	 -0.060287840	 1.109551080	 -1.573325624
H	 -1.572699442	 1.234012433	 -0.705018277
C	 -1.538350368	 -0.332519726	 -2.183787875
H	 -2.353109878	 -0.914402619	 -1.753153378
H	 -1.952284602	 0.278426897	 -2.984664632
H	 -0.830475651	 -1.032249176	 -2.628077901
C	 -3.827087202	 0.334806113	 -2.533166477
H	 -4.662587261	 1.034183879	 -2.563195243
H	 -2.906451553	 0.917186404	 -2.566589939
H	 -3.868563953	 -0.274935361	 -3.434538831
C	 -3.883241625	 -0.517288220	 -1.272098674
H	 -3.057686444	 -1.233162050	 -1.271536440
H	 -4.801664148	 -1.108947156	 -1.267096468
C	 -3.820977651	 0.317159146	 -0.000000000
H	 -2.899732114	 0.907329042	 0.000225167
H	 -4.645506886	 1.036398234	 0.000067356
C	 -3.883537859	 -0.518071519	 1.271680846
H	 -3.058309946	 -1.234278887	 1.270461371
H	 -4.802218126	 -1.109280691	 1.266172651
C	 -3.826971020	 0.332749819	 2.533545515
H	 -4.661945672	 1.032721196	 2.564350602
H	 -3.869097236	 -0.278091178	 3.434196113
H	 -2.905885061	 0.914362726	 2.567945889
