34
0  1  0  1  0  1  17  17 -2.58131 -2.39622 -2.47415 -2.65924 -2.58895 -2.63027  1.03740  1.03459  1.03297 -2.56913 -0.68951  2.04365 -0.16891 -3.75435
C	 -4.086587270	 1.720011860	 -2.533432669
H	 -3.579259308	 0.756022076	 -2.567771417
H	 -5.159600467	 1.530804899	 -2.563646161
H	 -3.818337810	 2.269942814	 -3.434368525
C	 -3.709930250	 2.485703568	 -1.271962175
H	 -4.210001808	 3.457009760	 -1.266768361
H	 -2.637163742	 2.693464542	 -1.271128176
C	 -4.072921649	 1.731719255	 0.000161674
H	 -5.146590928	 1.521081291	 0.000614345
H	 -3.570136477	 0.760007685	 0.000334262
C	 -3.709083382	 2.486498999	 1.271573412
H	 -4.208756822	 3.458016620	 1.265941117
H	 -2.636229332	 2.693833042	 1.270170697
C	 -4.085583237	 1.721742381	 2.533648198
H	 -3.578984844	 0.757357173	 2.568087539
H	 -3.816449058	 2.271818085	 3.434194932
H	 -5.158737224	 1.533350152	 2.564477289
C	 -0.020707161	 0.334806113	 2.533166477
H	 0.814792899	 1.034183879	 2.563195243
H	 -0.941342809	 0.917186404	 2.566589939
H	 0.020769591	 -0.274935361	 3.434538831
C	 0.035447263	 -0.517288220	 1.272098674
H	 -0.790107918	 -1.233162050	 1.271536440
H	 0.953869786	 -1.108947156	 1.267096468
C	 -0.026816711	 0.317159146	 -0.000000000
H	 -0.948062248	 0.907329042	 -0.000225167
H	 0.797712523	 1.036398234	 -0.000067356
C	 0.035743497	 -0.518071519	 -1.271680846
H	 -0.789484416	 -1.234278887	 -1.270461371
H	 0.954423764	 -1.109280691	 -1.266172651
C	 -0.020823342	 0.332749819	 -2.533545515
H	 0.814151310	 1.032721196	 -2.564350602
H	 0.021302874	 -0.278091178	 -3.434196113
H	 -0.941909301	 0.914362726	 -2.567945889
