34
0  1  0  1  0  1  17  17 -2.04128 -1.92060 -1.98079 -2.10147 -2.06423 -2.08616  0.64391  0.64317  0.64222 -2.06488 -0.34311  1.18766 -0.10768 -2.80175
C	 -3.918624494	 -2.395535384	 -2.533432672
H	 -2.830120871	 -2.438171373	 -2.567771420
H	 -4.291273058	 -3.419395551	 -2.563646164
H	 -4.260753941	 -1.888259060	 -3.434368528
C	 -4.393404455	 -1.686494982	 -1.271962178
H	 -5.484616071	 -1.633916559	 -1.266768364
H	 -4.036947482	 -0.653571447	 -1.271128179
C	 -3.921930585	 -2.377846911	 0.000161671
H	 -4.276347397	 -3.412990764	 0.000614342
H	 -2.829011094	 -2.428277965	 0.000334259
C	 -4.393669884	 -1.685363857	 1.271573409
H	 -5.484865544	 -1.632334939	 1.265941114
H	 -4.036799407	 -0.652577974	 1.270170694
C	 -3.919621153	 -2.393800605	 2.533648195
H	 -2.831139867	 -2.437266131	 2.568087536
H	 -4.261433597	 -1.885685717	 3.434194929
H	 -4.293045690	 -3.417375335	 2.564477286
C	 -0.020707161	 0.334806113	 2.533166477
H	 0.814792899	 1.034183879	 2.563195243
H	 -0.941342809	 0.917186404	 2.566589939
H	 0.020769591	 -0.274935361	 3.434538831
C	 0.035447263	 -0.517288220	 1.272098674
H	 -0.790107918	 -1.233162050	 1.271536440
H	 0.953869786	 -1.108947156	 1.267096468
C	 -0.026816711	 0.317159146	 -0.000000000
H	 -0.948062248	 0.907329042	 -0.000225167
H	 0.797712523	 1.036398234	 -0.000067356
C	 0.035743497	 -0.518071519	 -1.271680846
H	 -0.789484416	 -1.234278887	 -1.270461371
H	 0.954423764	 -1.109280691	 -1.266172651
C	 -0.020823342	 0.332749819	 -2.533545515
H	 0.814151310	 1.032721196	 -2.564350602
H	 0.021302874	 -0.278091178	 -3.434196113
H	 -0.941909301	 0.914362726	 -2.567945889
