34
0  1  0  1  0  1  17  17 -1.67583 -1.53591 -1.57153 -1.71145 -1.65012 -1.68622  1.11914  1.11836  1.11683 -1.65110 -0.59970  1.99119 -0.15177 -2.89081
C	 -5.881992192	 -0.334485042	 -0.280533088
H	 -5.101245774	 -0.915660703	 -0.770948214
H	 -6.619929818	 -1.034849675	 0.110627863
H	 -6.369400113	 0.275893865	 -1.039439112
C	 -5.300318415	 0.516951939	 0.840258059
H	 -6.093363096	 1.108091997	 1.304119918
H	 -4.585289676	 1.233261474	 0.428399043
C	 -4.610015255	 -0.317513330	 1.910633437
H	 -5.323831965	 -1.036765797	 2.323278406
H	 -3.812076630	 -0.907647649	 1.450142644
C	 -4.028259902	 0.518064236	 3.042856646
H	 -4.826510600	 1.109586456	 3.497223287
H	 -3.314098997	 1.234047809	 2.628915939
C	 -3.348448071	 -0.332484350	 4.107685537
H	 -2.533688561	 -0.914367243	 3.677051040
H	 -2.934513837	 0.278462273	 4.908562294
H	 -4.056322788	 -1.032213800	 4.551975563
C	 -0.020707161	 0.334806113	 2.533166477
H	 0.814792899	 1.034183879	 2.563195243
H	 -0.941342809	 0.917186404	 2.566589939
H	 0.020769591	 -0.274935361	 3.434538831
C	 0.035447263	 -0.517288220	 1.272098674
H	 -0.790107918	 -1.233162050	 1.271536440
H	 0.953869786	 -1.108947156	 1.267096468
C	 -0.026816711	 0.317159146	 -0.000000000
H	 -0.948062248	 0.907329042	 -0.000225167
H	 0.797712523	 1.036398234	 -0.000067356
C	 0.035743497	 -0.518071519	 -1.271680846
H	 -0.789484416	 -1.234278887	 -1.270461371
H	 0.954423764	 -1.109280691	 -1.266172651
C	 -0.020823342	 0.332749819	 -2.533545515
H	 0.814151310	 1.032721196	 -2.564350602
H	 0.021302874	 -0.278091178	 -3.434196113
H	 -0.941909301	 0.914362726	 -2.567945889
