34
0  1  0  1  0  1  17  17 89.63628 91.89575 89.73495 87.47548 89.43971 88.26084 117.56993 117.56090 117.45828 84.50833 -53.46371 193.49043 -22.25042 -33.26796
C	 -1.538424328	 -0.334520418	 2.183603311
H	 -2.353509494	 -0.915696079	 1.752664642
H	 -0.830700194	 -1.034885051	 2.627095566
H	 -1.951952263	 0.275858489	 2.985163965
C	 -0.858627611	 0.516916563	 1.119463470
H	 -0.060389116	 1.108056621	 1.574329380
H	 -1.572822351	 1.233226098	 0.706159925
C	 -0.276806922	 -0.317548706	 -0.013544292
H	 0.437462459	 -1.036801173	 0.398316628
H	 -1.074572959	 -0.907683025	 -0.474334016
C	 0.412849463	 0.518028860	 -1.083470811
H	 1.205467865	 1.109551080	 -0.619348749
H	 -0.302714157	 1.234012433	 -1.494981944
C	 0.995112418	 -0.332519726	 -2.204619572
H	 0.214792249	 -0.914402619	 -2.694904757
H	 1.481724918	 0.278426897	 -2.963535513
H	 1.733816226	 -1.032249176	 -1.813727097
C	 -3.827087202	 0.334806113	 -2.533166477
H	 -4.662587261	 1.034183879	 -2.563195243
H	 -2.906451553	 0.917186404	 -2.566589939
H	 -3.868563953	 -0.274935361	 -3.434538831
C	 -3.883241625	 -0.517288220	 -1.272098674
H	 -3.057686444	 -1.233162050	 -1.271536440
H	 -4.801664148	 -1.108947156	 -1.267096468
C	 -3.820977651	 0.317159146	 -0.000000000
H	 -2.899732114	 0.907329042	 0.000225167
H	 -4.645506886	 1.036398234	 0.000067356
C	 -3.883537859	 -0.518071519	 1.271680846
H	 -3.058309946	 -1.234278887	 1.270461371
H	 -4.802218126	 -1.109280691	 1.266172651
C	 -3.826971020	 0.332749819	 2.533545515
H	 -4.661945672	 1.032721196	 2.564350602
H	 -3.869097236	 -0.278091178	 3.434196113
H	 -2.905885061	 0.914362726	 2.567945889
