34
0  1  0  1  0  1  17  17 51.81115 54.35351 51.70269 49.16033 51.28749 50.01973 82.56905 82.56093 82.47087 50.62643 -52.25452 151.95598 -14.18669 -34.88835
C	 -1.053707884	 -0.279291833	 2.533432648
H	 -2.142211507	 -0.321927822	 2.567771396
H	 -0.681059320	 -1.303152000	 2.563646140
H	 -0.711578437	 0.227984491	 3.434368504
C	 -0.578927923	 0.429748569	 1.271962154
H	 0.512283693	 0.482326992	 1.266768340
H	 -0.935384896	 1.462672104	 1.271128155
C	 -1.050401793	 -0.261603360	 -0.000161695
H	 -0.695984981	 -1.296747213	 -0.000614366
H	 -2.143321284	 -0.312034414	 -0.000334283
C	 -0.578662495	 0.430879694	 -1.271573433
H	 0.512533165	 0.483908612	 -1.265941138
H	 -0.935532971	 1.463665577	 -1.270170718
C	 -1.052711225	 -0.277557054	 -2.533648219
H	 -2.141192511	 -0.321022580	 -2.568087560
H	 -0.710898781	 0.230557834	 -3.434194953
H	 -0.679286688	 -1.301131784	 -2.564477310
C	 -3.827087202	 0.334806113	 -2.533166477
H	 -4.662587261	 1.034183879	 -2.563195243
H	 -2.906451553	 0.917186404	 -2.566589939
H	 -3.868563953	 -0.274935361	 -3.434538831
C	 -3.883241625	 -0.517288220	 -1.272098674
H	 -3.057686444	 -1.233162050	 -1.271536440
H	 -4.801664148	 -1.108947156	 -1.267096468
C	 -3.820977651	 0.317159146	 -0.000000000
H	 -2.899732114	 0.907329042	 0.000225167
H	 -4.645506886	 1.036398234	 0.000067356
C	 -3.883537859	 -0.518071519	 1.271680846
H	 -3.058309946	 -1.234278887	 1.270461371
H	 -4.802218126	 -1.109280691	 1.266172651
C	 -3.826971020	 0.332749819	 2.533545515
H	 -4.661945672	 1.032721196	 2.564350602
H	 -3.869097236	 -0.278091178	 3.434196113
H	 -2.905885061	 0.914362726	 2.567945889
