34
0  1  0  1  0  1  17  17 -3.45987 -2.93769 -3.25318 -3.77535 -3.49586 -3.66023  5.72212  5.71426  5.70766 -3.24292 -3.42104 10.69218 -0.86845 -9.64561
C	 2.533557865	 0.298556172	 4.339875274
H	 2.568142352	 0.898362870	 3.430549726
H	 2.564061176	 0.981762749	 5.188620095
H	 3.434238556	 -0.312941134	 4.370084214
C	 1.271731663	 -0.553331099	 4.379179526
H	 1.266287953	 -1.163058812	 5.285676486
H	 1.270601151	 -1.252684843	 3.539598464
C	 -0.000043327	 0.282768001	 4.333563086
H	 -0.000198254	 0.985077979	 5.172547560
H	 0.000033569	 0.891544420	 3.424493451
C	 -1.271804166	 -0.553373978	 4.378834624
H	 -1.266421926	 -1.163483427	 5.285084727
H	 -1.270697826	 -1.252396870	 3.538970971
C	 -2.533523396	 0.298672331	 4.339856918
H	 -2.567716698	 0.899205999	 3.430980160
H	 -3.434325372	 -0.312626024	 4.369370100
H	 -2.564062930	 0.981258571	 5.189118308
C	 -2.533308650	 -0.294879067	 0.713148758
H	 -2.563626820	 -0.977081809	 -0.136422641
H	 -2.566978352	 -0.895875900	 1.621731768
H	 -3.434426110	 0.315957131	 0.684104472
C	 -1.271884866	 0.557655468	 0.674354677
H	 -1.271026303	 1.256565714	 1.514319405
H	 -1.266632549	 1.167895814	 -0.231826531
C	 -0.000135043	 -0.278418218	 0.719603148
H	 -0.000159375	 -0.887229516	 1.628637086
H	 -0.000365425	 -0.980714184	 -0.119404392
C	 1.271894760	 0.557382187	 0.674061079
H	 1.270971755	 1.256633312	 1.513705410
H	 1.266636490	 1.167182502	 -0.232386925
C	 2.533403758	 -0.294941760	 0.713280149
H	 2.563919186	 -0.977774101	 -0.135778362
H	 3.434309555	 0.316254316	 0.683599450
H	 2.567558205	 -0.895208868	 1.622328649
