34
0  1  0  1  0  1  17  17 -1.09304 -1.04258 -1.06141 -1.11187 -1.09782 -1.10607  0.19701  0.19711  0.19681 -1.11158 -0.08919  0.33309 -0.02647 -1.32900
C	 3.049087585	 -0.334473250	 2.204430109
H	 2.268341167	 -0.915648911	 2.694845235
H	 3.787025211	 -1.034837883	 1.813269158
H	 3.536495506	 0.275905657	 2.963336133
C	 2.467413808	 0.516963731	 1.083638962
H	 3.260458489	 1.108103789	 0.619777103
H	 1.752385069	 1.233273266	 1.495497978
C	 1.777110648	 -0.317501538	 0.013263584
H	 2.490927358	 -1.036754005	 -0.399381385
H	 0.979172023	 -0.907635857	 0.473754377
C	 1.195355295	 0.518076028	 -1.118959624
H	 1.993605992	 1.109598248	 -1.573326265
H	 0.481194390	 1.234059601	 -0.705018918
C	 0.515543464	 -0.332472558	 -2.183788516
H	 -0.299216046	 -0.914355451	 -1.753154019
H	 0.101609230	 0.278474065	 -2.984665273
H	 1.223418181	 -1.032202008	 -2.628078542
C	 -3.827087202	 0.334806113	 -2.533166477
H	 -4.662587261	 1.034183879	 -2.563195243
H	 -2.906451553	 0.917186404	 -2.566589939
H	 -3.868563953	 -0.274935361	 -3.434538831
C	 -3.883241625	 -0.517288220	 -1.272098674
H	 -3.057686444	 -1.233162050	 -1.271536440
H	 -4.801664148	 -1.108947156	 -1.267096468
C	 -3.820977651	 0.317159146	 -0.000000000
H	 -2.899732114	 0.907329042	 0.000225167
H	 -4.645506886	 1.036398234	 0.000067356
C	 -3.883537859	 -0.518071519	 1.271680846
H	 -3.058309946	 -1.234278887	 1.270461371
H	 -4.802218126	 -1.109280691	 1.266172651
C	 -3.826971020	 0.332749819	 2.533545515
H	 -4.661945672	 1.032721196	 2.564350602
H	 -3.869097236	 -0.278091178	 3.434196113
H	 -2.905885061	 0.914362726	 2.567945889
