34
0  1  0  1  0  1  17  17 -1.50661 -0.99322 -1.32396 -1.83735 -1.53430 -1.71352  7.30887  7.29853  7.28900 -1.27469 -4.42831 13.86857 -1.32943 -9.38552
C	 0.081781317	 -0.300096934	 2.533432660
H	 -0.425546645	 -1.264086718	 2.567771408
H	 1.154794514	 -0.489303895	 2.563646152
H	 -0.186468143	 0.249834020	 3.434368516
C	 -0.294875703	 0.465594774	 1.271962166
H	 0.205195855	 1.436900966	 1.266768352
H	 -1.367642211	 0.673355748	 1.271128167
C	 0.068115696	 -0.288389539	 -0.000161683
H	 1.141784975	 -0.499027503	 -0.000614354
H	 -0.434669476	 -1.260101110	 -0.000334271
C	 -0.295722572	 0.466390204	 -1.271573421
H	 0.203950868	 1.437907825	 -1.265941126
H	 -1.368576621	 0.673724248	 -1.270170706
C	 0.080777284	 -0.298366413	 -2.533648207
H	 -0.425821109	 -1.262751621	 -2.568087548
H	 -0.188356895	 0.251709291	 -3.434194941
H	 1.153931271	 -0.486758642	 -2.564477298
C	 -3.827087202	 0.334806113	 -2.533166477
H	 -4.662587261	 1.034183879	 -2.563195243
H	 -2.906451553	 0.917186404	 -2.566589939
H	 -3.868563953	 -0.274935361	 -3.434538831
C	 -3.883241625	 -0.517288220	 -1.272098674
H	 -3.057686444	 -1.233162050	 -1.271536440
H	 -4.801664148	 -1.108947156	 -1.267096468
C	 -3.820977651	 0.317159146	 -0.000000000
H	 -2.899732114	 0.907329042	 0.000225167
H	 -4.645506886	 1.036398234	 0.000067356
C	 -3.883537859	 -0.518071519	 1.271680846
H	 -3.058309946	 -1.234278887	 1.270461371
H	 -4.802218126	 -1.109280691	 1.266172651
C	 -3.826971020	 0.332749819	 2.533545515
H	 -4.661945672	 1.032721196	 2.564350602
H	 -3.869097236	 -0.278091178	 3.434196113
H	 -2.905885061	 0.914362726	 2.567945889
