34
0  1  0  1  0  1  17  17 -1.17812 -1.02100 -1.02247 -1.17958 -1.10303 -1.14830  1.78452  1.78187  1.77946 -1.13119 -0.96092  3.25155 -0.30595 -3.11587
C	 -0.220034685	 0.333174771	 2.646801981
H	 0.727107814	 0.871463171	 2.680377556
H	 -1.020705940	 1.072315808	 2.675864242
H	 -0.292651528	 -0.273422046	 3.548155694
C	 -0.313084427	 -0.516416915	 1.386237026
H	 -1.254295314	 -1.071481344	 1.383968661
H	 0.483172297	 -1.264273168	 1.384946095
C	 -0.218548862	 0.315034446	 0.114010536
H	 -1.012298064	 1.068608420	 0.113901944
H	 0.725363008	 0.868260708	 0.114148499
C	 -0.312740875	 -0.516332008	 -1.158322507
H	 -1.253776595	 -1.071705054	 -1.156206408
H	 0.483743744	 -1.263953346	 -1.157095177
C	 -0.220030132	 0.333561132	 -2.418683423
H	 0.726796124	 0.872432250	 -2.452082523
H	 -0.292289745	 -0.272806210	 -3.320223064
H	 -1.021140133	 1.072239202	 -2.447521043
C	 -5.115396591	 0.000136027	 2.280467806
C	 -6.427467313	 0.183392000	 3.038170781
H	 -6.372296878	 -0.274745138	 4.026641881
H	 -6.655978029	 1.242112509	 3.168452161
H	 -7.255666049	 -0.277233834	 2.497727550
C	 -3.979707063	 0.656003624	 3.061688336
H	 -3.029803393	 0.536034133	 2.539247679
H	 -4.162632292	 1.723921278	 3.190372345
H	 -3.879111863	 0.208381312	 4.051634279
C	 -5.226568719	 0.650383272	 0.903853486
H	 -4.298832347	 0.531411639	 0.342688599
H	 -5.433052362	 1.717951429	 0.993923289
H	 -6.032134943	 0.197832035	 0.323682054
C	 -4.825889520	 -1.489767457	 2.117056726
H	 -5.624490277	 -1.982294566	 1.560288080
H	 -3.891183380	 -1.646959525	 1.576772365
H	 -4.740212860	 -1.978168484	 3.088895026
