34
0  1  0  1  0  1  17  17 55.90364 58.57441 55.70936 53.03859 55.30337 53.95173 87.88250 87.87085 87.77056 53.49594 -55.90823 160.45641 -13.88681 -37.16543
C	 -2.530501649	 -0.378723043	 2.048879075
H	 -2.560004804	 -0.943937691	 1.117416462
H	 -2.554155028	 -1.095012670	 2.870230543
H	 -3.436332322	 0.222996042	 2.104343976
C	 -1.276275607	 0.482487216	 2.117597483
H	 -1.278202611	 1.064070139	 3.042658124
H	 -1.280457766	 1.207407929	 1.300414589
C	 0.002085928	 -0.341863913	 2.046565213
H	 0.007710163	 -1.072560752	 2.861403870
H	 0.006129888	 -0.921670413	 1.118752191
C	 1.268214700	 0.501248631	 2.116941774
H	 1.261901081	 1.083102571	 3.041819093
H	 1.261516110	 1.225909394	 1.299538064
C	 2.534847498	 -0.341572408	 2.048259009
H	 2.572321468	 -0.906864234	 1.117120784
H	 3.431862394	 0.273267200	 2.103150365
H	 2.569088940	 -1.056957745	 2.870028732
C	 -0.000523380	 0.064682599	 5.266332281
C	 0.000548363	 -0.075448506	 6.786065235
H	 -0.886487662	 0.388627536	 7.219434648
H	 0.009799865	 -1.126228753	 7.079075104
H	 0.879208586	 0.404216056	 7.219708304
C	 -1.239978717	 -0.616969432	 4.692433770
H	 -1.263277931	 -0.528012308	 3.605604585
H	 -1.252064346	 -1.678245827	 4.945446971
H	 -2.150922438	 -0.164678174	 5.087518890
C	 1.252081732	 -0.592858208	 4.692861943
H	 1.273408518	 -0.504572543	 3.605890984
H	 1.285212266	 -1.653419048	 4.946954262
H	 2.153893966	 -0.122214896	 5.087283065
C	 -0.014771255	 1.544475090	 4.891711005
H	 0.862994742	 2.055062108	 5.290666136
H	 -0.015295456	 1.670930016	 3.808059316
H	 -0.902877204	 2.037808802	 5.289499146
