34
0  1  0  1  0  1  17  17 -1.22948 -1.16503 -1.16585 -1.23030 -1.21483 -1.22401  0.28736  0.28605  0.28550 -1.26426 -0.12439  0.49919 -0.04586 -1.59321
C	 0.480814057	 0.105144762	 2.532791444
H	 1.427956556	 0.643433162	 2.566367019
H	 -0.319857198	 0.844285799	 2.561853705
H	 0.408197214	 -0.501452055	 3.434145157
C	 0.387764315	 -0.744446924	 1.272226489
H	 -0.553446572	 -1.299511353	 1.269958124
H	 1.184021039	 -1.492303177	 1.270935558
C	 0.482299880	 0.087004437	 -0.000000001
H	 -0.311449322	 0.840578411	 -0.000108593
H	 1.426211750	 0.640230699	 0.000137962
C	 0.388107867	 -0.744362017	 -1.272333044
H	 -0.552927853	 -1.299735063	 -1.270216945
H	 1.184592486	 -1.491983355	 -1.271105714
C	 0.480818610	 0.105531123	 -2.532693960
H	 1.427644866	 0.644402241	 -2.566093060
H	 0.408558997	 -0.500836219	 -3.434233601
H	 -0.320291391	 0.844209193	 -2.561531580
C	 -4.451412103	 2.280590106	 -0.000005193
C	 -5.671932171	 3.196863466	 0.000149471
H	 -6.287643455	 3.023333342	 0.883775772
H	 -5.370368445	 4.245260710	 -0.001278902
H	 -6.289375356	 3.021459557	 -0.881987464
C	 -3.609989571	 2.552125248	 1.244396396
H	 -2.731323124	 1.906298102	 1.266901350
H	 -3.268946476	 3.588349015	 1.264377402
H	 -4.187013494	 2.368400441	 2.152012331
C	 -3.613576091	 2.547706103	 -1.247774229
H	 -2.734268104	 1.902660791	 -1.269889091
H	 -3.273656113	 3.584174737	 -1.273013313
H	 -4.192804778	 2.359562784	 -2.153000540
C	 -4.908474469	 0.824082831	 0.003230196
H	 -5.512600695	 0.604153952	 -0.878245974
H	 -4.052090907	 0.148139785	 0.002683284
H	 -5.509235815	 0.606975627	 0.887705182
