34
0  1  0  1  0  1  17  17 -1.58725 -1.39128 -1.41430 -1.61027 -1.51629 -1.57154  2.24755  2.24672  2.24453 -1.56053 -1.20003  4.18878 -0.44453 -4.10475
C	 -0.192868563	 0.219164234	 2.532791445
H	 0.754273936	 0.757452634	 2.566367020
H	 -0.993539818	 0.958305271	 2.561853706
H	 -0.265485406	 -0.387432583	 3.434145158
C	 -0.285918305	 -0.630427452	 1.272226490
H	 -1.227129192	 -1.185491881	 1.269958125
H	 0.510338419	 -1.378283705	 1.270935559
C	 -0.191382740	 0.201023909	 0.000000000
H	 -0.985131942	 0.954597883	 -0.000108592
H	 0.752529130	 0.754250171	 0.000137963
C	 -0.285574753	 -0.630342545	 -1.272333043
H	 -1.226610473	 -1.185715591	 -1.270216944
H	 0.510909866	 -1.377963883	 -1.271105713
C	 -0.192864010	 0.219550595	 -2.532693959
H	 0.753962246	 0.758421713	 -2.566093059
H	 -0.265123623	 -0.386816747	 -3.434233600
H	 -0.993974011	 0.958228665	 -2.561531579
C	 -4.572139497	 -2.280354501	 -0.000005193
C	 -5.975915538	 -2.879219205	 0.000149471
H	 -6.133489684	 -3.499205881	 0.883775772
H	 -6.733072321	 -2.093858736	 -0.001278902
H	 -6.132732889	 -3.501642643	 -0.881987464
C	 -4.386584562	 -1.415893642	 1.244396396
H	 -3.387948624	 -0.977859750	 1.266901350
H	 -5.113459121	 -0.602429774	 1.264377402
H	 -4.515986173	 -2.007473421	 2.152012331
C	 -4.384550730	 -1.421209231	 -1.247774229
H	 -3.386271110	 -0.982228833	 -1.269889091
H	 -5.112198909	 -0.608595578	 -1.273013313
H	 -4.511228180	 -2.016907648	 -2.153000540
C	 -3.539298379	 -3.404435758	 0.003230196
H	 -3.650897496	 -4.037588856	 -0.878245974
H	 -2.525722749	 -3.000757361	 0.002683284
H	 -3.651658698	 -4.033263947	 0.887705182
