34
0  1  0  1  0  1  17  17 -1.61956 -1.49319 -1.49836 -1.62473 -1.57600 -1.60466  1.08420  1.08446  1.08330 -1.63411 -0.55367  2.00077 -0.20700 -2.87420
C	 0.035712028	 0.333171791	 2.532791445
H	 0.982854527	 0.871460191	 2.566367020
H	 -0.764959227	 1.072312828	 2.561853706
H	 -0.036904815	 -0.273425026	 3.434145158
C	 -0.057337714	 -0.516419895	 1.272226490
H	 -0.998548601	 -1.071484324	 1.269958125
H	 0.738919010	 -1.264276148	 1.270935559
C	 0.037197851	 0.315031466	 0.000000000
H	 -0.756551351	 1.068605440	 -0.000108592
H	 0.981109721	 0.868257728	 0.000137963
C	 -0.056994162	 -0.516334988	 -1.272333043
H	 -0.998029882	 -1.071708034	 -1.270216944
H	 0.739490457	 -1.263956326	 -1.271105713
C	 0.035716581	 0.333558152	 -2.532693959
H	 0.982542837	 0.872429270	 -2.566093059
H	 -0.036543032	 -0.272809190	 -3.434233600
H	 -0.765393420	 1.072236222	 -2.561531579
C	 -4.572139497	 -2.280354501	 -0.000005193
C	 -5.975915538	 -2.879219205	 0.000149471
H	 -6.133489684	 -3.499205881	 0.883775772
H	 -6.733072321	 -2.093858736	 -0.001278902
H	 -6.132732889	 -3.501642643	 -0.881987464
C	 -4.386584562	 -1.415893642	 1.244396396
H	 -3.387948624	 -0.977859750	 1.266901350
H	 -5.113459121	 -0.602429774	 1.264377402
H	 -4.515986173	 -2.007473421	 2.152012331
C	 -4.384550730	 -1.421209231	 -1.247774229
H	 -3.386271110	 -0.982228833	 -1.269889091
H	 -5.112198909	 -0.608595578	 -1.273013313
H	 -4.511228180	 -2.016907648	 -2.153000540
C	 -3.539298379	 -3.404435758	 0.003230196
H	 -3.650897496	 -4.037588856	 -0.878245974
H	 -2.525722749	 -3.000757361	 0.002683284
H	 -3.651658698	 -4.033263947	 0.887705182
