34
0  1  0  1  0  1  17  17 -1.72458 -1.57212 -1.56544 -1.71790 -1.66096 -1.69463  1.22452  1.22325  1.22146 -1.72689 -0.63152  2.25701 -0.21624 -3.13613
C	 0.035712028	 0.333171791	 2.532791445
H	 0.982854527	 0.871460191	 2.566367020
H	 -0.764959227	 1.072312828	 2.561853706
H	 -0.036904815	 -0.273425026	 3.434145158
C	 -0.057337714	 -0.516419895	 1.272226490
H	 -0.998548601	 -1.071484324	 1.269958125
H	 0.738919010	 -1.264276148	 1.270935559
C	 0.037197851	 0.315031466	 0.000000000
H	 -0.756551351	 1.068605440	 -0.000108592
H	 0.981109721	 0.868257728	 0.000137963
C	 -0.056994162	 -0.516334988	 -1.272333043
H	 -0.998029882	 -1.071708034	 -1.270216944
H	 0.739490457	 -1.263956326	 -1.271105713
C	 0.035716581	 0.333558152	 -2.532693959
H	 0.982542837	 0.872429270	 -2.566093059
H	 -0.036543032	 -0.272809190	 -3.434233600
H	 -0.765393420	 1.072236222	 -2.561531579
C	 -4.451412103	 2.280590106	 -0.000005193
C	 -5.671932171	 3.196863466	 0.000149471
H	 -6.287643455	 3.023333342	 0.883775772
H	 -5.370368445	 4.245260710	 -0.001278902
H	 -6.289375356	 3.021459557	 -0.881987464
C	 -3.609989571	 2.552125248	 1.244396396
H	 -2.731323124	 1.906298102	 1.266901350
H	 -3.268946476	 3.588349015	 1.264377402
H	 -4.187013494	 2.368400441	 2.152012331
C	 -3.613576091	 2.547706103	 -1.247774229
H	 -2.734268104	 1.902660791	 -1.269889091
H	 -3.273656113	 3.584174737	 -1.273013313
H	 -4.192804778	 2.359562784	 -2.153000540
C	 -4.908474469	 0.824082831	 0.003230196
H	 -5.512600695	 0.604153952	 -0.878245974
H	 -4.052090907	 0.148139785	 0.002683284
H	 -5.509235815	 0.606975627	 0.887705182
