34
0  1  0  1  0  1  17  17 -0.93677 -0.37063 -0.64346 -1.20960 -0.86895 -1.07065  8.10102  8.08993  8.07864 -0.69431 -5.06331 15.49343 -1.38407 -9.74037
C	 -2.530422466	 -0.404624566	 1.137163976
H	 -2.559925621	 -0.969839214	 0.205701363
H	 -2.554075845	 -1.120914193	 1.958515444
H	 -3.436253139	 0.197094519	 1.192628877
C	 -1.276196424	 0.456585693	 1.205882384
H	 -1.278123428	 1.038168616	 2.130943025
H	 -1.280378583	 1.181506406	 0.388699490
C	 0.002165111	 -0.367765436	 1.134850114
H	 0.007789346	 -1.098462275	 1.949688771
H	 0.006209071	 -0.947571936	 0.207037092
C	 1.268293883	 0.475347108	 1.205226675
H	 1.261980264	 1.057201048	 2.130103994
H	 1.261595293	 1.200007871	 0.387822965
C	 2.534926681	 -0.367473931	 1.136543910
H	 2.572400651	 -0.932765757	 0.205405685
H	 3.431941577	 0.247365677	 1.191435266
H	 2.569168123	 -1.082859268	 1.958313633
C	 -0.000523380	 0.064682599	 5.266332281
C	 0.000548363	 -0.075448506	 6.786065235
H	 -0.886487662	 0.388627536	 7.219434648
H	 0.009799865	 -1.126228753	 7.079075104
H	 0.879208586	 0.404216056	 7.219708304
C	 -1.239978717	 -0.616969432	 4.692433770
H	 -1.263277931	 -0.528012308	 3.605604585
H	 -1.252064346	 -1.678245827	 4.945446971
H	 -2.150922438	 -0.164678174	 5.087518890
C	 1.252081732	 -0.592858208	 4.692861943
H	 1.273408518	 -0.504572543	 3.605890984
H	 1.285212266	 -1.653419048	 4.946954262
H	 2.153893966	 -0.122214896	 5.087283065
C	 -0.014771255	 1.544475090	 4.891711005
H	 0.862994742	 2.055062108	 5.290666136
H	 -0.015295456	 1.670930016	 3.808059316
H	 -0.902877204	 2.037808802	 5.289499146
