34
0  1  0  1  0  1  17  17 -1.64390 -1.54977 -1.57836 -1.67249 -1.63822 -1.65837  0.54559  0.54489  0.54409 -1.66421 -0.35212  1.06779 -0.09245 -2.28743
C	 -4.845284497	 0.333168811	 -2.532791456
H	 -5.792426996	 0.871457211	 -2.566367031
H	 -4.044613242	 1.072309848	 -2.561853717
H	 -4.772667653	 -0.273428006	 -3.434145169
C	 -4.752234754	 -0.516422875	 -1.272226501
H	 -3.811023867	 -1.071487304	 -1.269958136
H	 -5.548491479	 -1.264279128	 -1.270935570
C	 -4.846770319	 0.315028486	 -0.000000011
H	 -4.053021118	 1.068602460	 0.000108581
H	 -5.790682189	 0.868254748	 -0.000137974
C	 -4.752578307	 -0.516337968	 1.272333032
H	 -3.811542587	 -1.071711014	 1.270216933
H	 -5.549062925	 -1.263959306	 1.271105702
C	 -4.845289049	 0.333555172	 2.532693948
H	 -5.792115305	 0.872426290	 2.566093048
H	 -4.773029436	 -0.272812170	 3.434233589
H	 -4.044179048	 1.072233242	 2.561531568
C	 0.423065848	 0.000136027	 0.000266309
C	 1.735291233	 0.183392000	 0.757701397
H	 2.563747100	 -0.274745138	 0.215686850
H	 1.962373577	 1.242112509	 0.890456793
H	 1.681353035	 -0.277233834	 1.745164158
C	 0.531777909	 0.656003624	 -1.373879938
H	 -0.395620807	 0.536034133	 -1.935300319
H	 0.734684144	 1.723921278	 -1.279804048
H	 1.338798643	 0.208381312	 -1.955970909
C	 -0.713531061	 0.650383272	 0.784851355
H	 -1.663382295	 0.531411639	 0.261990532
H	 -0.532286502	 1.717951429	 0.918636534
H	 -0.813191147	 0.197832035	 1.772577886
C	 0.136794166	 -1.489767457	 -0.168748629
H	 0.053918752	 -1.982294566	 0.801244236
H	 -0.798458887	 -1.646959525	 -0.708085712
H	 0.935592492	 -1.978168484	 -0.728865944
