34
0  1  0  1  0  1  17  17 -1.51125 -1.41143 -1.40679 -1.50661 -1.47716 -1.49461  0.59246  0.59112  0.59011 -1.53825 -0.28626  1.06987 -0.09931 -2.22255
C	 0.258263042	 0.219158276	 2.532791445
H	 1.205405541	 0.757446676	 2.566367020
H	 -0.542408213	 0.958299313	 2.561853706
H	 0.185646199	 -0.387438541	 3.434145158
C	 0.165213300	 -0.630433410	 1.272226490
H	 -0.775997587	 -1.185497839	 1.269958125
H	 0.961470024	 -1.378289663	 1.270935559
C	 0.259748865	 0.201017951	 -0.000000000
H	 -0.534000337	 0.954591925	 -0.000108592
H	 1.203660735	 0.754244213	 0.000137963
C	 0.165556852	 -0.630348503	 -1.272333043
H	 -0.775478868	 -1.185721549	 -1.270216944
H	 0.962041471	 -1.377969841	 -1.271105713
C	 0.258267595	 0.219544637	 -2.532693959
H	 1.205093851	 0.758415755	 -2.566093059
H	 0.186007982	 -0.386822705	 -3.434233600
H	 -0.542842406	 0.958222707	 -2.561531579
C	 -4.451412103	 2.280590106	 -0.000005193
C	 -5.671932171	 3.196863466	 0.000149471
H	 -6.287643455	 3.023333342	 0.883775772
H	 -5.370368445	 4.245260710	 -0.001278902
H	 -6.289375356	 3.021459557	 -0.881987464
C	 -3.609989571	 2.552125248	 1.244396396
H	 -2.731323124	 1.906298102	 1.266901350
H	 -3.268946476	 3.588349015	 1.264377402
H	 -4.187013494	 2.368400441	 2.152012331
C	 -3.613576091	 2.547706103	 -1.247774229
H	 -2.734268104	 1.902660791	 -1.269889091
H	 -3.273656113	 3.584174737	 -1.273013313
H	 -4.192804778	 2.359562784	 -2.153000540
C	 -4.908474469	 0.824082831	 0.003230196
H	 -5.512600695	 0.604153952	 -0.878245974
H	 -4.052090907	 0.148139785	 0.002683284
H	 -5.509235815	 0.606975627	 0.887705182
