34
0  1  0  1  0  1  17  17 -1.33094 -1.27063 -1.29509 -1.35541 -1.33717 -1.34786  0.24097  0.24054  0.24019 -1.36017 -0.16172  0.47888 -0.04108 -1.63624
C	 -5.094435982	 0.333165831	 -2.532791466
H	 -6.041578481	 0.871454231	 -2.566367041
H	 -4.293764727	 1.072306868	 -2.561853727
H	 -5.021819138	 -0.273430986	 -3.434145179
C	 -5.001386239	 -0.516425855	 -1.272226511
H	 -4.060175352	 -1.071490284	 -1.269958146
H	 -5.797642964	 -1.264282108	 -1.270935580
C	 -5.095921804	 0.315025506	 -0.000000021
H	 -4.302172603	 1.068599480	 0.000108571
H	 -6.039833674	 0.868251768	 -0.000137984
C	 -5.001729792	 -0.516340948	 1.272333022
H	 -4.060694072	 -1.071713994	 1.270216923
H	 -5.798214410	 -1.263962286	 1.271105692
C	 -5.094440534	 0.333552192	 2.532693938
H	 -6.041266790	 0.872423310	 2.566093038
H	 -5.022180921	 -0.272815150	 3.434233579
H	 -4.293330533	 1.072230262	 2.561531558
C	 0.423065848	 0.000136027	 0.000266309
C	 1.735291233	 0.183392000	 0.757701397
H	 2.563747100	 -0.274745138	 0.215686850
H	 1.962373577	 1.242112509	 0.890456793
H	 1.681353035	 -0.277233834	 1.745164158
C	 0.531777909	 0.656003624	 -1.373879938
H	 -0.395620807	 0.536034133	 -1.935300319
H	 0.734684144	 1.723921278	 -1.279804048
H	 1.338798643	 0.208381312	 -1.955970909
C	 -0.713531061	 0.650383272	 0.784851355
H	 -1.663382295	 0.531411639	 0.261990532
H	 -0.532286502	 1.717951429	 0.918636534
H	 -0.813191147	 0.197832035	 1.772577886
C	 0.136794166	 -1.489767457	 -0.168748629
H	 0.053918752	 -1.982294566	 0.801244236
H	 -0.798458887	 -1.646959525	 -0.708085712
H	 0.935592492	 -1.978168484	 -0.728865944
