34
0  1  0  1  0  1  17  17 -1.80473 -1.56497 -1.60966 -1.84941 -1.72330 -1.79747  3.03631  3.03689  3.03391 -1.74222 -1.65193  5.60217 -0.57585 -5.11660
C	 -4.350334968	 0.333174781	 -2.532791445
H	 -5.297477467	 0.871463181	 -2.566367020
H	 -3.549663713	 1.072315818	 -2.561853706
H	 -4.277718124	 -0.273422036	 -3.434145158
C	 -4.257285225	 -0.516416905	 -1.272226490
H	 -3.316074338	 -1.071481334	 -1.269958125
H	 -5.053541950	 -1.264273158	 -1.270935559
C	 -4.351820790	 0.315034456	 -0.000000000
H	 -3.558071589	 1.068608430	 0.000108592
H	 -5.295732660	 0.868260718	 -0.000137963
C	 -4.257628778	 -0.516331998	 1.272333043
H	 -3.316593058	 -1.071705044	 1.270216944
H	 -5.054113396	 -1.263953336	 1.271105713
C	 -4.350339520	 0.333561142	 2.532693959
H	 -5.297165776	 0.872432260	 2.566093059
H	 -4.278079907	 -0.272806200	 3.434233600
H	 -3.549229519	 1.072239212	 2.561531579
C	 0.355931723	 0.000379614	 0.000005193
C	 1.576451790	 0.916652974	 -0.000149471
H	 2.192163075	 0.743122850	 -0.883775772
H	 1.274888065	 1.965050218	 0.001278902
H	 2.193894976	 0.741249065	 0.881987464
C	 -0.485490809	 0.271914756	 -1.244396396
H	 -1.364157256	 -0.373912390	 -1.266901350
H	 -0.826533904	 1.308138523	 -1.264377402
H	 0.091533113	 0.088189948	 -2.152012331
C	 -0.481904290	 0.267495610	 1.247774229
H	 -1.361212277	 -0.377549701	 1.269889091
H	 -0.821824268	 1.303964245	 1.273013313
H	 0.097324397	 0.079352292	 2.153000540
C	 0.812994089	 -1.456127661	 -0.003230196
H	 1.417120314	 -1.676056540	 0.878245974
H	 -0.043389474	 -2.132070707	 -0.002683284
H	 1.413755435	 -1.673234865	 -0.887705182
