34
0  1  0  1  0  1  17  17 -0.82255 -0.78640 -0.79027 -0.82642 -0.81751 -0.82275  0.13964  0.13924  0.13901 -0.84253 -0.06050  0.23632 -0.01991 -0.99844
C	 0.547255382	 0.333165831	 2.760812515
H	 1.494397881	 0.871454231	 2.794388090
H	 -0.253415873	 1.072306868	 2.789874776
H	 0.474638539	 -0.273430986	 3.662166228
C	 0.454205640	 -0.516425855	 1.500247560
H	 -0.487005247	 -1.071490284	 1.497979195
H	 1.250462364	 -1.264282108	 1.498956629
C	 0.548741205	 0.315025506	 0.228021070
H	 -0.245007997	 1.068599480	 0.227912478
H	 1.492653075	 0.868251768	 0.228159033
C	 0.454549192	 -0.516340948	 -1.044311973
H	 -0.486486528	 -1.071713994	 -1.042195874
H	 1.251033811	 -1.263962286	 -1.043084643
C	 0.547259935	 0.333552192	 -2.304672889
H	 1.494086191	 0.872423310	 -2.338071989
H	 0.475000322	 -0.272815150	 -3.206212530
H	 -0.253850066	 1.072230262	 -2.333510509
C	 -5.115890684	 0.000136027	 -2.280476801
C	 -6.428116070	 0.183392000	 -3.037911890
H	 -7.256571936	 -0.274745138	 -2.495897342
H	 -6.655198413	 1.242112509	 -3.170667285
H	 -6.374177871	 -0.277233834	 -4.025374650
C	 -5.224602745	 0.656003624	 -0.906330554
H	 -4.297204029	 0.536034133	 -0.344910173
H	 -5.427508980	 1.723921278	 -1.000406444
H	 -6.031623480	 0.208381312	 -0.324239583
C	 -3.979293776	 0.650383272	 -3.065061848
H	 -3.029442542	 0.531411639	 -2.542201025
H	 -4.160538335	 1.717951429	 -3.198847026
H	 -3.879633689	 0.197832035	 -4.052788378
C	 -4.829619002	 -1.489767457	 -2.111461863
H	 -4.746743589	 -1.982294566	 -3.081454728
H	 -3.894365950	 -1.646959525	 -1.572124781
H	 -5.628417328	 -1.978168484	 -1.551344548
