34
0  1  0  1  0  1  17  17 13.54785 14.44713 13.75966 12.86037 13.54824 13.13908 26.82670 26.82045 26.79323 13.45029 -15.12830 49.20511 -5.75732 -14.86921
C	 -3.599540532	 0.333183712	 -2.532791490
H	 -4.546683031	 0.871472112	 -2.566367065
H	 -2.798869277	 1.072324749	 -2.561853751
H	 -3.526923688	 -0.273413105	 -3.434145203
C	 -3.506490789	 -0.516407974	 -1.272226535
H	 -2.565279902	 -1.071472403	 -1.269958170
H	 -4.302747514	 -1.264264227	 -1.270935604
C	 -3.601026354	 0.315043387	 -0.000000045
H	 -2.807277153	 1.068617361	 0.000108547
H	 -4.544938224	 0.868269649	 -0.000138008
C	 -3.506834342	 -0.516323067	 1.272332998
H	 -2.565798622	 -1.071696113	 1.270216899
H	 -4.303318960	 -1.263944405	 1.271105668
C	 -3.599545084	 0.333570073	 2.532693914
H	 -4.546371340	 0.872441191	 2.566093014
H	 -3.527285471	 -0.272797269	 3.434233555
H	 -2.798435083	 1.072248143	 2.561531534
C	 0.423003757	 0.000136027	 -0.000257314
C	 1.735074478	 0.183392000	 -0.757960289
H	 1.679904044	 -0.274745138	 -1.746431389
H	 1.963585195	 1.242112509	 -0.888241669
H	 2.563273215	 -0.277233834	 -0.217517058
C	 -0.712685771	 0.656003624	 -0.781477844
H	 -1.662589441	 0.536034133	 -0.259037187
H	 -0.529760542	 1.723921278	 -0.910161853
H	 -0.813280972	 0.208381312	 -1.771423786
C	 0.534175884	 0.650383272	 1.376357006
H	 -0.393560488	 0.531411639	 1.937521893
H	 0.740659527	 1.717951429	 1.286287203
H	 1.339742109	 0.197832035	 1.956528438
C	 0.133496686	 -1.489767457	 0.163153766
H	 0.932097442	 -1.982294566	 0.719922413
H	 -0.801209455	 -1.646959525	 0.703438127
H	 0.047820026	 -1.978168484	 -0.808684534
