34
0  1  0  1  0  1  17  17 -0.39601 -0.03656 -0.18879 -0.54824 -0.32807 -0.45886  5.91889  5.91465  5.90633 -0.24332 -3.52383 11.16397 -1.12363 -6.75983
C	 -4.097836772	 0.333177751	 -2.532791468
H	 -5.044979271	 0.871466151	 -2.566367043
H	 -3.297165517	 1.072318788	 -2.561853729
H	 -4.025219928	 -0.273419066	 -3.434145181
C	 -4.004787029	 -0.516413935	 -1.272226513
H	 -3.063576142	 -1.071478364	 -1.269958148
H	 -4.801043754	 -1.264270188	 -1.270935582
C	 -4.099322594	 0.315037426	 -0.000000023
H	 -3.305573393	 1.068611400	 0.000108569
H	 -5.043234464	 0.868263688	 -0.000137986
C	 -4.005130582	 -0.516329028	 1.272333020
H	 -3.064094862	 -1.071702074	 1.270216921
H	 -4.801615200	 -1.263950366	 1.271105690
C	 -4.097841324	 0.333564112	 2.532693936
H	 -5.044667580	 0.872435230	 2.566093036
H	 -4.025581711	 -0.272803230	 3.434233577
H	 -3.296731323	 1.072242182	 2.561531556
C	 0.423003757	 0.000136027	 -0.000257314
C	 1.735074478	 0.183392000	 -0.757960289
H	 1.679904044	 -0.274745138	 -1.746431389
H	 1.963585195	 1.242112509	 -0.888241669
H	 2.563273215	 -0.277233834	 -0.217517058
C	 -0.712685771	 0.656003624	 -0.781477844
H	 -1.662589441	 0.536034133	 -0.259037187
H	 -0.529760542	 1.723921278	 -0.910161853
H	 -0.813280972	 0.208381312	 -1.771423786
C	 0.534175884	 0.650383272	 1.376357006
H	 -0.393560488	 0.531411639	 1.937521893
H	 0.740659527	 1.717951429	 1.286287203
H	 1.339742109	 0.197832035	 1.956528438
C	 0.133496686	 -1.489767457	 0.163153766
H	 0.932097442	 -1.982294566	 0.719922413
H	 -0.801209455	 -1.646959525	 0.703438127
H	 0.047820026	 -1.978168484	 -0.808684534
