34
0  1  0  1  0  1  17  17 -0.39584 -0.03602 -0.18870 -0.54853 -0.32814 -0.45906  5.92404  5.91978  5.91146 -0.24271 -3.53023 11.17519 -1.12243 -6.76523
C	 -4.097830044	 0.333177751	 -2.532791424
H	 -5.044972543	 0.871466151	 -2.566366999
H	 -3.297158789	 1.072318788	 -2.561853685
H	 -4.025213200	 -0.273419066	 -3.434145137
C	 -4.004780301	 -0.516413935	 -1.272226469
H	 -3.063569414	 -1.071478364	 -1.269958104
H	 -4.801037026	 -1.264270188	 -1.270935538
C	 -4.099315866	 0.315037426	 0.000000021
H	 -3.305566665	 1.068611400	 0.000108613
H	 -5.043227736	 0.868263688	 -0.000137942
C	 -4.005123854	 -0.516329028	 1.272333064
H	 -3.064088134	 -1.071702074	 1.270216965
H	 -4.801608472	 -1.263950366	 1.271105734
C	 -4.097834596	 0.333564112	 2.532693980
H	 -5.044660852	 0.872435230	 2.566093080
H	 -4.025574983	 -0.272803230	 3.434233621
H	 -3.296724595	 1.072242182	 2.561531600
C	 0.423065848	 0.000136027	 0.000266309
C	 1.735291233	 0.183392000	 0.757701397
H	 2.563747100	 -0.274745138	 0.215686850
H	 1.962373577	 1.242112509	 0.890456793
H	 1.681353035	 -0.277233834	 1.745164158
C	 0.531777909	 0.656003624	 -1.373879938
H	 -0.395620807	 0.536034133	 -1.935300319
H	 0.734684144	 1.723921278	 -1.279804048
H	 1.338798643	 0.208381312	 -1.955970909
C	 -0.713531061	 0.650383272	 0.784851355
H	 -1.663382295	 0.531411639	 0.261990532
H	 -0.532286502	 1.717951429	 0.918636534
H	 -0.813191147	 0.197832035	 1.772577886
C	 0.136794166	 -1.489767457	 -0.168748629
H	 0.053918752	 -1.982294566	 0.801244236
H	 -0.798458887	 -1.646959525	 -0.708085712
H	 0.935592492	 -1.978168484	 -0.728865944
