34
0  1  0  1  0  1  17  17 10.92547 12.15819 11.19699  9.96428 10.88604 10.34006 28.08814 28.06880 28.03778 11.29690 -17.69699 52.70027 -4.67927 -19.02710
C	 -2.530462058	 -0.391673805	 1.593021525
H	 -2.559965213	 -0.956888453	 0.661558912
H	 -2.554115437	 -1.107963432	 2.414372993
H	 -3.436292731	 0.210045280	 1.648486426
C	 -1.276236016	 0.469536454	 1.661739933
H	 -1.278163020	 1.051119377	 2.586800574
H	 -1.280418175	 1.194457167	 0.844557039
C	 0.002125519	 -0.354814675	 1.590707663
H	 0.007749754	 -1.085511514	 2.405546320
H	 0.006169479	 -0.934621175	 0.662894641
C	 1.268254291	 0.488297869	 1.661084224
H	 1.261940672	 1.070151809	 2.585961543
H	 1.261555701	 1.212958632	 0.843680514
C	 2.534887089	 -0.354523170	 1.592401459
H	 2.572361059	 -0.919814996	 0.661263234
H	 3.431901985	 0.260316438	 1.647292815
H	 2.569128531	 -1.069908507	 2.414171182
C	 -0.000523380	 0.064682599	 5.266332281
C	 0.000548363	 -0.075448506	 6.786065235
H	 -0.886487662	 0.388627536	 7.219434648
H	 0.009799865	 -1.126228753	 7.079075104
H	 0.879208586	 0.404216056	 7.219708304
C	 -1.239978717	 -0.616969432	 4.692433770
H	 -1.263277931	 -0.528012308	 3.605604585
H	 -1.252064346	 -1.678245827	 4.945446971
H	 -2.150922438	 -0.164678174	 5.087518890
C	 1.252081732	 -0.592858208	 4.692861943
H	 1.273408518	 -0.504572543	 3.605890984
H	 1.285212266	 -1.653419048	 4.946954262
H	 2.153893966	 -0.122214896	 5.087283065
C	 -0.014771255	 1.544475090	 4.891711005
H	 0.862994742	 2.055062108	 5.290666136
H	 -0.015295456	 1.670930016	 3.808059316
H	 -0.902877204	 2.037808802	 5.289499146
