34
0  1  0  1  0  1  17  17 -1.86277 -1.71615 -1.75656 -1.90318 -1.83889 -1.87676  1.22152  1.22013  1.21846 -1.85679 -0.76343  2.35751 -0.21166 -3.23921
C	 -4.596133013	 0.333171791	 -2.532791445
H	 -5.543275512	 0.871460191	 -2.566367020
H	 -3.795461758	 1.072312828	 -2.561853706
H	 -4.523516169	 -0.273425026	 -3.434145158
C	 -4.503083270	 -0.516419895	 -1.272226490
H	 -3.561872383	 -1.071484324	 -1.269958125
H	 -5.299339995	 -1.264276148	 -1.270935559
C	 -4.597618835	 0.315031466	 -0.000000000
H	 -3.803869634	 1.068605440	 0.000108592
H	 -5.541530705	 0.868257728	 -0.000137963
C	 -4.503426823	 -0.516334988	 1.272333043
H	 -3.562391103	 -1.071708034	 1.270216944
H	 -5.299911441	 -1.263956326	 1.271105713
C	 -4.596137565	 0.333558152	 2.532693959
H	 -5.542963821	 0.872429270	 2.566093059
H	 -4.523877952	 -0.272809190	 3.434233600
H	 -3.795027564	 1.072236222	 2.561531579
C	 0.423003757	 0.000136027	 -0.000257314
C	 1.735074478	 0.183392000	 -0.757960289
H	 1.679904044	 -0.274745138	 -1.746431389
H	 1.963585195	 1.242112509	 -0.888241669
H	 2.563273215	 -0.277233834	 -0.217517058
C	 -0.712685771	 0.656003624	 -0.781477844
H	 -1.662589441	 0.536034133	 -0.259037187
H	 -0.529760542	 1.723921278	 -0.910161853
H	 -0.813280972	 0.208381312	 -1.771423786
C	 0.534175884	 0.650383272	 1.376357006
H	 -0.393560488	 0.531411639	 1.937521893
H	 0.740659527	 1.717951429	 1.286287203
H	 1.339742109	 0.197832035	 1.956528438
C	 0.133496686	 -1.489767457	 0.163153766
H	 0.932097442	 -1.982294566	 0.719922413
H	 -0.801209455	 -1.646959525	 0.703438127
H	 0.047820026	 -1.978168484	 -0.808684534
