34
0  1  0  1  0  1  17  17 -0.45756 -0.07648 -0.19786 -0.57894 -0.34215 -0.48241  6.54458  6.54243  6.53446 -0.28438 -3.55723 12.05500 -1.31044 -7.47172
C	 -4.104536924	 0.333177771	 -2.532791446
H	 -5.051679423	 0.871466171	 -2.566367021
H	 -3.303865669	 1.072318808	 -2.561853707
H	 -4.031920080	 -0.273419046	 -3.434145159
C	 -4.011487181	 -0.516413915	 -1.272226491
H	 -3.070276294	 -1.071478344	 -1.269958126
H	 -4.807743906	 -1.264270168	 -1.270935560
C	 -4.106022746	 0.315037446	 -0.000000001
H	 -3.312273545	 1.068611420	 0.000108591
H	 -5.049934616	 0.868263708	 -0.000137964
C	 -4.011830734	 -0.516329008	 1.272333042
H	 -3.070795014	 -1.071702054	 1.270216943
H	 -4.808315352	 -1.263950346	 1.271105712
C	 -4.104541476	 0.333564132	 2.532693958
H	 -5.051367732	 0.872435250	 2.566093058
H	 -4.032281863	 -0.272803210	 3.434233599
H	 -3.303431475	 1.072242202	 2.561531578
C	 0.355931723	 0.000379614	 0.000005193
C	 1.576451790	 0.916652974	 -0.000149471
H	 2.192163075	 0.743122850	 -0.883775772
H	 1.274888065	 1.965050218	 0.001278902
H	 2.193894976	 0.741249065	 0.881987464
C	 -0.485490809	 0.271914756	 -1.244396396
H	 -1.364157256	 -0.373912390	 -1.266901350
H	 -0.826533904	 1.308138523	 -1.264377402
H	 0.091533113	 0.088189948	 -2.152012331
C	 -0.481904290	 0.267495610	 1.247774229
H	 -1.361212277	 -0.377549701	 1.269889091
H	 -0.821824268	 1.303964245	 1.273013313
H	 0.097324397	 0.079352292	 2.153000540
C	 0.812994089	 -1.456127661	 -0.003230196
H	 1.417120314	 -1.676056540	 0.878245974
H	 -0.043389474	 -2.132070707	 -0.002683284
H	 1.413755435	 -1.673234865	 -0.887705182
