34
0  1  0  1  0  1  17  17 40.06059 41.97820 40.25528 38.33767 39.94526 38.99038 63.97029 63.96710 63.90669 38.52711 -39.12919 117.23771 -11.62928 -27.95213
C	 -1.299594059	 1.017252878	 2.532791447
H	 -0.352451560	 1.555541278	 2.566367022
H	 -2.100265314	 1.756393915	 2.561853708
H	 -1.372210902	 0.410656061	 3.434145160
C	 -1.392643801	 0.167661192	 1.272226492
H	 -2.333854688	 -0.387403237	 1.269958127
H	 -0.596387077	 -0.580195061	 1.270935561
C	 -1.298108236	 0.999112553	 0.000000002
H	 -2.091857438	 1.752686527	 -0.000108590
H	 -0.354196366	 1.552338815	 0.000137965
C	 -1.392300249	 0.167746099	 -1.272333041
H	 -2.333335969	 -0.387626947	 -1.270216942
H	 -0.595815630	 -0.579875239	 -1.271105711
C	 -1.299589506	 1.017639239	 -2.532693957
H	 -0.352763250	 1.556510357	 -2.566093057
H	 -1.371849119	 0.411271897	 -3.434233598
H	 -2.100699507	 1.756317309	 -2.561531577
C	 -4.451412103	 2.280590106	 -0.000005193
C	 -5.671932171	 3.196863466	 0.000149471
H	 -6.287643455	 3.023333342	 0.883775772
H	 -5.370368445	 4.245260710	 -0.001278902
H	 -6.289375356	 3.021459557	 -0.881987464
C	 -3.609989571	 2.552125248	 1.244396396
H	 -2.731323124	 1.906298102	 1.266901350
H	 -3.268946476	 3.588349015	 1.264377402
H	 -4.187013494	 2.368400441	 2.152012331
C	 -3.613576091	 2.547706103	 -1.247774229
H	 -2.734268104	 1.902660791	 -1.269889091
H	 -3.273656113	 3.584174737	 -1.273013313
H	 -4.192804778	 2.359562784	 -2.153000540
C	 -4.908474469	 0.824082831	 0.003230196
H	 -5.512600695	 0.604153952	 -0.878245974
H	 -4.052090907	 0.148139785	 0.002683284
H	 -5.509235815	 0.606975627	 0.887705182
