34
0  1  0  1  0  1  17  17 -1.64302 -1.54908 -1.57761 -1.67155 -1.63741 -1.65748  0.54466  0.54396  0.54317 -1.66345 -0.35126  1.06579 -0.09235 -2.28562
C	 -4.845281133	 0.333168811	 -2.532791434
H	 -5.792423632	 0.871457211	 -2.566367009
H	 -4.044609878	 1.072309848	 -2.561853695
H	 -4.772664289	 -0.273428006	 -3.434145147
C	 -4.752231390	 -0.516422875	 -1.272226479
H	 -3.811020503	 -1.071487304	 -1.269958114
H	 -5.548488115	 -1.264279128	 -1.270935548
C	 -4.846766955	 0.315028486	 0.000000011
H	 -4.053017754	 1.068602460	 0.000108603
H	 -5.790678825	 0.868254748	 -0.000137952
C	 -4.752574943	 -0.516337968	 1.272333054
H	 -3.811539223	 -1.071711014	 1.270216955
H	 -5.549059561	 -1.263959306	 1.271105724
C	 -4.845285685	 0.333555172	 2.532693970
H	 -5.792111941	 0.872426290	 2.566093070
H	 -4.773026072	 -0.272812170	 3.434233611
H	 -4.044175684	 1.072233242	 2.561531590
C	 0.423003757	 0.000136027	 -0.000257314
C	 1.735074478	 0.183392000	 -0.757960289
H	 1.679904044	 -0.274745138	 -1.746431389
H	 1.963585195	 1.242112509	 -0.888241669
H	 2.563273215	 -0.277233834	 -0.217517058
C	 -0.712685771	 0.656003624	 -0.781477844
H	 -1.662589441	 0.536034133	 -0.259037187
H	 -0.529760542	 1.723921278	 -0.910161853
H	 -0.813280972	 0.208381312	 -1.771423786
C	 0.534175884	 0.650383272	 1.376357006
H	 -0.393560488	 0.531411639	 1.937521893
H	 0.740659527	 1.717951429	 1.286287203
H	 1.339742109	 0.197832035	 1.956528438
C	 0.133496686	 -1.489767457	 0.163153766
H	 0.932097442	 -1.982294566	 0.719922413
H	 -0.801209455	 -1.646959525	 0.703438127
H	 0.047820026	 -1.978168484	 -0.808684534
