34
0  1  0  1  0  1  17  17 52.93528 54.75993 53.13286 51.30822 52.84548 51.92556 74.61561 74.60549 74.53156 49.98554 -44.09083 133.74094 -13.79545 -25.86912
C	 -1.498918033	 0.333189672	 1.848728234
H	 -0.551775534	 0.871478072	 1.882303809
H	 -2.299589288	 1.072330709	 1.877790495
H	 -1.571534876	 -0.273407145	 2.750081947
C	 -1.591967775	 -0.516402014	 0.588163279
H	 -2.533178662	 -1.071466443	 0.585894914
H	 -0.795711051	 -1.264258267	 0.586872348
C	 -1.497432210	 0.315049347	 -0.684063211
H	 -2.291181412	 1.068623321	 -0.684171803
H	 -0.553520340	 0.868275609	 -0.683925248
C	 -1.591624223	 -0.516317107	 -1.956396254
H	 -2.532659943	 -1.071690153	 -1.954280155
H	 -0.795139604	 -1.263938445	 -1.955168924
C	 -1.498913480	 0.333576033	 -3.216757170
H	 -0.552087224	 0.872447151	 -3.250156270
H	 -1.571173093	 -0.272791309	 -4.118296811
H	 -2.300023481	 1.072254103	 -3.245594790
C	 -5.115890684	 0.000136027	 -2.280476801
C	 -6.428116070	 0.183392000	 -3.037911890
H	 -7.256571936	 -0.274745138	 -2.495897342
H	 -6.655198413	 1.242112509	 -3.170667285
H	 -6.374177871	 -0.277233834	 -4.025374650
C	 -5.224602745	 0.656003624	 -0.906330554
H	 -4.297204029	 0.536034133	 -0.344910173
H	 -5.427508980	 1.723921278	 -1.000406444
H	 -6.031623480	 0.208381312	 -0.324239583
C	 -3.979293776	 0.650383272	 -3.065061848
H	 -3.029442542	 0.531411639	 -2.542201025
H	 -4.160538335	 1.717951429	 -3.198847026
H	 -3.879633689	 0.197832035	 -4.052788378
C	 -4.829619002	 -1.489767457	 -2.111461863
H	 -4.746743589	 -1.982294566	 -3.081454728
H	 -3.894365950	 -1.646959525	 -1.572124781
H	 -5.628417328	 -1.978168484	 -1.551344548
