34
0  1  0  1  0  1  17  17 44.94798 46.92199 45.14646 43.17245 44.81670 43.83475 68.68445 68.67523 68.60088 42.47679 -42.98018 124.26220 -10.98862 -27.81662
C	 -3.098851256	 0.333189599	 -2.532791447
H	 -4.045993755	 0.871477999	 -2.566367022
H	 -2.298180001	 1.072330636	 -2.561853708
H	 -3.026234412	 -0.273407218	 -3.434145160
C	 -3.005801513	 -0.516402087	 -1.272226492
H	 -2.064590626	 -1.071466516	 -1.269958127
H	 -3.802058238	 -1.264258340	 -1.270935561
C	 -3.100337078	 0.315049274	 -0.000000002
H	 -2.306587877	 1.068623248	 0.000108590
H	 -4.044248948	 0.868275536	 -0.000137965
C	 -3.006145066	 -0.516317180	 1.272333041
H	 -2.065109346	 -1.071690226	 1.270216942
H	 -3.802629684	 -1.263938518	 1.271105711
C	 -3.098855808	 0.333575960	 2.532693957
H	 -4.045682064	 0.872447078	 2.566093057
H	 -3.026596195	 -0.272791382	 3.434233598
H	 -2.297745807	 1.072254030	 2.561531577
C	 0.431045876	 -0.000144009	 0.000005193
C	 1.834821916	 -0.599008712	 -0.000149471
H	 1.992396063	 -1.218995389	 -0.883775772
H	 2.591978700	 0.186351756	 0.001278902
H	 1.991639268	 -1.221432151	 0.881987464
C	 0.245490941	 0.864316850	 -1.244396396
H	 -0.753144997	 1.302350742	 -1.266901350
H	 0.972365500	 1.677780718	 -1.264377402
H	 0.374892551	 0.272737071	 -2.152012331
C	 0.243457108	 0.859001261	 1.247774229
H	 -0.754822512	 1.297981660	 1.269889091
H	 0.971105287	 1.671614914	 1.273013313
H	 0.370134558	 0.263302844	 2.153000540
C	 -0.601795242	 -1.124225266	 -0.003230196
H	 -0.490196126	 -1.757378363	 0.878245974
H	 -1.615370873	 -0.720546868	 -0.002683284
H	 -0.489434923	 -1.753053455	 -0.887705182
