34
0  1  0  1  0  1  17  17 -1.74862 -1.65062 -1.66470 -1.76271 -1.72896 -1.74873  0.63451  0.63553  0.63492 -1.77528 -0.33474  1.16117 -0.10990 -2.49181
C	 -4.841931058	 0.333168801	 -2.532791445
H	 -5.789073557	 0.871457201	 -2.566367020
H	 -4.041259803	 1.072309838	 -2.561853706
H	 -4.769314214	 -0.273428016	 -3.434145158
C	 -4.748881315	 -0.516422885	 -1.272226490
H	 -3.807670428	 -1.071487314	 -1.269958125
H	 -5.545138040	 -1.264279138	 -1.270935559
C	 -4.843416880	 0.315028476	 0.000000000
H	 -4.049667679	 1.068602450	 0.000108592
H	 -5.787328750	 0.868254738	 -0.000137963
C	 -4.749224868	 -0.516337978	 1.272333043
H	 -3.808189148	 -1.071711024	 1.270216944
H	 -5.545709486	 -1.263959316	 1.271105713
C	 -4.841935610	 0.333555162	 2.532693959
H	 -5.788761866	 0.872426280	 2.566093059
H	 -4.769675997	 -0.272812180	 3.434233600
H	 -4.040825609	 1.072233232	 2.561531579
C	 0.355931723	 0.000379614	 0.000005193
C	 1.576451790	 0.916652974	 -0.000149471
H	 2.192163075	 0.743122850	 -0.883775772
H	 1.274888065	 1.965050218	 0.001278902
H	 2.193894976	 0.741249065	 0.881987464
C	 -0.485490809	 0.271914756	 -1.244396396
H	 -1.364157256	 -0.373912390	 -1.266901350
H	 -0.826533904	 1.308138523	 -1.264377402
H	 0.091533113	 0.088189948	 -2.152012331
C	 -0.481904290	 0.267495610	 1.247774229
H	 -1.361212277	 -0.377549701	 1.269889091
H	 -0.821824268	 1.303964245	 1.273013313
H	 0.097324397	 0.079352292	 2.153000540
C	 0.812994089	 -1.456127661	 -0.003230196
H	 1.417120314	 -1.676056540	 0.878245974
H	 -0.043389474	 -2.132070707	 -0.002683284
H	 1.413755435	 -1.673234865	 -0.887705182
