34
0  1  0  1  0  1  17  17 -1.86363 -1.71672 -1.75728 -1.90419 -1.83972 -1.87770  1.22332  1.22191  1.22024 -1.85741 -0.76512  2.36134 -0.21174 -3.24189
C	 -4.596133013	 0.333171791	 -2.532791445
H	 -5.543275512	 0.871460191	 -2.566367020
H	 -3.795461758	 1.072312828	 -2.561853706
H	 -4.523516169	 -0.273425026	 -3.434145158
C	 -4.503083270	 -0.516419895	 -1.272226490
H	 -3.561872383	 -1.071484324	 -1.269958125
H	 -5.299339995	 -1.264276148	 -1.270935559
C	 -4.597618835	 0.315031466	 -0.000000000
H	 -3.803869634	 1.068605440	 0.000108592
H	 -5.541530705	 0.868257728	 -0.000137963
C	 -4.503426823	 -0.516334988	 1.272333043
H	 -3.562391103	 -1.071708034	 1.270216944
H	 -5.299911441	 -1.263956326	 1.271105713
C	 -4.596137565	 0.333558152	 2.532693959
H	 -5.542963821	 0.872429270	 2.566093059
H	 -4.523877952	 -0.272809190	 3.434233600
H	 -3.795027564	 1.072236222	 2.561531579
C	 0.423065848	 0.000136027	 0.000266309
C	 1.735291233	 0.183392000	 0.757701397
H	 2.563747100	 -0.274745138	 0.215686850
H	 1.962373577	 1.242112509	 0.890456793
H	 1.681353035	 -0.277233834	 1.745164158
C	 0.531777909	 0.656003624	 -1.373879938
H	 -0.395620807	 0.536034133	 -1.935300319
H	 0.734684144	 1.723921278	 -1.279804048
H	 1.338798643	 0.208381312	 -1.955970909
C	 -0.713531061	 0.650383272	 0.784851355
H	 -1.663382295	 0.531411639	 0.261990532
H	 -0.532286502	 1.717951429	 0.918636534
H	 -0.813191147	 0.197832035	 1.772577886
C	 0.136794166	 -1.489767457	 -0.168748629
H	 0.053918752	 -1.982294566	 0.801244236
H	 -0.798458887	 -1.646959525	 -0.708085712
H	 0.935592492	 -1.978168484	 -0.728865944
