34
0  1  0  1  0  1  17  17 83.75633 86.18382 83.43113 81.00364 83.11187 81.84845 114.85576 114.85194 114.74622 78.38089 -56.75764 200.57579 -27.69837 -37.73888
C	 -3.121344745	 0.333189731	 -2.532791447
H	 -4.068487244	 0.871478131	 -2.566367022
H	 -2.320673490	 1.072330768	 -2.561853708
H	 -3.048727901	 -0.273407086	 -3.434145160
C	 -3.028295002	 -0.516401955	 -1.272226492
H	 -2.087084115	 -1.071466384	 -1.269958127
H	 -3.824551727	 -1.264258208	 -1.270935561
C	 -3.122830567	 0.315049406	 -0.000000002
H	 -2.329081366	 1.068623380	 0.000108590
H	 -4.066742437	 0.868275668	 -0.000137965
C	 -3.028638555	 -0.516317048	 1.272333041
H	 -2.087602835	 -1.071690094	 1.270216942
H	 -3.825123173	 -1.263938386	 1.271105711
C	 -3.121349297	 0.333576092	 2.532693957
H	 -4.068175553	 0.872447210	 2.566093057
H	 -3.049089684	 -0.272791250	 3.434233598
H	 -2.320239296	 1.072254162	 2.561531577
C	 0.355931723	 0.000379614	 0.000005193
C	 1.576451790	 0.916652974	 -0.000149471
H	 2.192163075	 0.743122850	 -0.883775772
H	 1.274888065	 1.965050218	 0.001278902
H	 2.193894976	 0.741249065	 0.881987464
C	 -0.485490809	 0.271914756	 -1.244396396
H	 -1.364157256	 -0.373912390	 -1.266901350
H	 -0.826533904	 1.308138523	 -1.264377402
H	 0.091533113	 0.088189948	 -2.152012331
C	 -0.481904290	 0.267495610	 1.247774229
H	 -1.361212277	 -0.377549701	 1.269889091
H	 -0.821824268	 1.303964245	 1.273013313
H	 0.097324397	 0.079352292	 2.153000540
C	 0.812994089	 -1.456127661	 -0.003230196
H	 1.417120314	 -1.676056540	 0.878245974
H	 -0.043389474	 -2.132070707	 -0.002683284
H	 1.413755435	 -1.673234865	 -0.887705182
