34
0  1  0  1  0  1  17  17 -0.35221 -0.09651 -0.13036 -0.38606 -0.23543 -0.32495  4.05918  4.05490  4.04912 -0.22351 -2.23298  7.42603 -0.73091 -4.68565
C	 -0.475781398	 0.333177751	 2.760812517
H	 0.471361101	 0.871466151	 2.794388092
H	 -1.276452653	 1.072318788	 2.789874778
H	 -0.548398241	 -0.273419066	 3.662166230
C	 -0.568831140	 -0.516413935	 1.500247562
H	 -1.510042027	 -1.071478364	 1.497979197
H	 0.227425584	 -1.264270188	 1.498956631
C	 -0.474295575	 0.315037426	 0.228021072
H	 -1.268044777	 1.068611400	 0.227912480
H	 0.469616295	 0.868263688	 0.228159035
C	 -0.568487588	 -0.516329028	 -1.044311971
H	 -1.509523308	 -1.071702074	 -1.042195872
H	 0.227997031	 -1.263950366	 -1.043084641
C	 -0.475776845	 0.333564112	 -2.304672887
H	 0.471049411	 0.872435230	 -2.338071987
H	 -0.548036458	 -0.272803230	 -3.206212528
H	 -1.276886846	 1.072242182	 -2.333510507
C	 -5.115396591	 0.000136027	 2.280467806
C	 -6.427467313	 0.183392000	 3.038170781
H	 -6.372296878	 -0.274745138	 4.026641881
H	 -6.655978029	 1.242112509	 3.168452161
H	 -7.255666049	 -0.277233834	 2.497727550
C	 -3.979707063	 0.656003624	 3.061688336
H	 -3.029803393	 0.536034133	 2.539247679
H	 -4.162632292	 1.723921278	 3.190372345
H	 -3.879111863	 0.208381312	 4.051634279
C	 -5.226568719	 0.650383272	 0.903853486
H	 -4.298832347	 0.531411639	 0.342688599
H	 -5.433052362	 1.717951429	 0.993923289
H	 -6.032134943	 0.197832035	 0.323682054
C	 -4.825889520	 -1.489767457	 2.117056726
H	 -5.624490277	 -1.982294566	 1.560288080
H	 -3.891183380	 -1.646959525	 1.576772365
H	 -4.740212860	 -1.978168484	 3.088895026
