34
0  1  0  1  0  1  17  17 -1.53498 -1.44059 -1.46007 -1.55447 -1.52078 -1.54066  0.58012  0.57860  0.57764 -1.55249 -0.34965  1.11213 -0.09587 -2.21910
C	 -4.845679973	 0.333168823	 -2.532791445
H	 -5.792822472	 0.871457223	 -2.566367020
H	 -4.045008718	 1.072309860	 -2.561853706
H	 -4.773063129	 -0.273427994	 -3.434145158
C	 -4.752630230	 -0.516422863	 -1.272226490
H	 -3.811419343	 -1.071487292	 -1.269958125
H	 -5.548886955	 -1.264279116	 -1.270935559
C	 -4.847165795	 0.315028498	 0.000000000
H	 -4.053416594	 1.068602472	 0.000108592
H	 -5.791077665	 0.868254760	 -0.000137963
C	 -4.752973783	 -0.516337956	 1.272333043
H	 -3.811938063	 -1.071711002	 1.270216944
H	 -5.549458401	 -1.263959294	 1.271105713
C	 -4.845684525	 0.333555184	 2.532693959
H	 -5.792510781	 0.872426302	 2.566093059
H	 -4.773424912	 -0.272812158	 3.434233600
H	 -4.044574524	 1.072233254	 2.561531579
C	 0.431045876	 -0.000144009	 0.000005193
C	 1.834821916	 -0.599008712	 -0.000149471
H	 1.992396063	 -1.218995389	 -0.883775772
H	 2.591978700	 0.186351756	 0.001278902
H	 1.991639268	 -1.221432151	 0.881987464
C	 0.245490941	 0.864316850	 -1.244396396
H	 -0.753144997	 1.302350742	 -1.266901350
H	 0.972365500	 1.677780718	 -1.264377402
H	 0.374892551	 0.272737071	 -2.152012331
C	 0.243457108	 0.859001261	 1.247774229
H	 -0.754822512	 1.297981660	 1.269889091
H	 0.971105287	 1.671614914	 1.273013313
H	 0.370134558	 0.263302844	 2.153000540
C	 -0.601795242	 -1.124225266	 -0.003230196
H	 -0.490196126	 -1.757378363	 0.878245974
H	 -1.615370873	 -0.720546868	 -0.002683284
H	 -0.489434923	 -1.753053455	 -0.887705182
