34
0  1  0  1  0  1  17  17 -1.98923 -1.87376 -1.90944 -2.02490 -1.98787 -2.00970  0.54644  0.54447  0.54349 -2.02164 -0.33058  1.05207 -0.09160 -2.65153
C	 -2.530343284	 -0.430526090	 0.225448878
H	 -2.559846439	 -0.995740738	 -0.706013735
H	 -2.553996663	 -1.146815717	 1.046800346
H	 -3.436173957	 0.171192995	 0.280913779
C	 -1.276117242	 0.430684169	 0.294167286
H	 -1.278044246	 1.012267092	 1.219227927
H	 -1.280299401	 1.155604882	 -0.523015608
C	 0.002244293	 -0.393666960	 0.223135016
H	 0.007868528	 -1.124363799	 1.037973673
H	 0.006288253	 -0.973473460	 -0.704678006
C	 1.268373065	 0.449445584	 0.293511577
H	 1.262059446	 1.031299524	 1.218388896
H	 1.261674475	 1.174106347	 -0.523892133
C	 2.535005863	 -0.393375455	 0.224828812
H	 2.572479833	 -0.958667281	 -0.706309413
H	 3.432020759	 0.221464153	 0.279720168
H	 2.569247305	 -1.108760792	 1.046598535
C	 -0.000523380	 0.064682599	 5.266332281
C	 0.000548363	 -0.075448506	 6.786065235
H	 -0.886487662	 0.388627536	 7.219434648
H	 0.009799865	 -1.126228753	 7.079075104
H	 0.879208586	 0.404216056	 7.219708304
C	 -1.239978717	 -0.616969432	 4.692433770
H	 -1.263277931	 -0.528012308	 3.605604585
H	 -1.252064346	 -1.678245827	 4.945446971
H	 -2.150922438	 -0.164678174	 5.087518890
C	 1.252081732	 -0.592858208	 4.692861943
H	 1.273408518	 -0.504572543	 3.605890984
H	 1.285212266	 -1.653419048	 4.946954262
H	 2.153893966	 -0.122214896	 5.087283065
C	 -0.014771255	 1.544475090	 4.891711005
H	 0.862994742	 2.055062108	 5.290666136
H	 -0.015295456	 1.670930016	 3.808059316
H	 -0.902877204	 2.037808802	 5.289499146
