34
0  1  0  1  0  1  17  17  9.17421  9.86205  9.50632  8.81848  9.33506  9.02752 19.04205 19.03588 19.01480  9.31825 -10.83223 34.70082 -3.63717 -10.91316
C	 -0.987374679	 0.333183712	 2.076749304
H	 -0.040232180	 0.871472112	 2.110324879
H	 -1.788045934	 1.072324749	 2.105811565
H	 -1.059991522	 -0.273413105	 2.978103017
C	 -1.080424421	 -0.516407974	 0.816184349
H	 -2.021635308	 -1.071472403	 0.813915984
H	 -0.284167697	 -1.264264227	 0.814893418
C	 -0.985888856	 0.315043387	 -0.456042141
H	 -1.779638058	 1.068617361	 -0.456150733
H	 -0.041976986	 0.868269649	 -0.455904178
C	 -1.080080869	 -0.516323067	 -1.728375184
H	 -2.021116589	 -1.071696113	 -1.726259085
H	 -0.283596250	 -1.263944405	 -1.727147854
C	 -0.987370126	 0.333570073	 -2.988736100
H	 -0.040543870	 0.872441191	 -3.022135200
H	 -1.059629739	 -0.272797269	 -3.890275741
H	 -1.788480127	 1.072248143	 -3.017573720
C	 -5.115890684	 0.000136027	 -2.280476801
C	 -6.428116070	 0.183392000	 -3.037911890
H	 -7.256571936	 -0.274745138	 -2.495897342
H	 -6.655198413	 1.242112509	 -3.170667285
H	 -6.374177871	 -0.277233834	 -4.025374650
C	 -5.224602745	 0.656003624	 -0.906330554
H	 -4.297204029	 0.536034133	 -0.344910173
H	 -5.427508980	 1.723921278	 -1.000406444
H	 -6.031623480	 0.208381312	 -0.324239583
C	 -3.979293776	 0.650383272	 -3.065061848
H	 -3.029442542	 0.531411639	 -2.542201025
H	 -4.160538335	 1.717951429	 -3.198847026
H	 -3.879633689	 0.197832035	 -4.052788378
C	 -4.829619002	 -1.489767457	 -2.111461863
H	 -4.746743589	 -1.982294566	 -3.081454728
H	 -3.894365950	 -1.646959525	 -1.572124781
H	 -5.628417328	 -1.978168484	 -1.551344548
