34
0  1  0  1  0  1  17  17 -1.61346 -1.38810 -1.44193 -1.66729 -1.55209 -1.62051  2.57222  2.56673  2.56242 -1.56284 -1.56677  4.89918 -0.44298 -4.45227
C	 -4.346586053	 0.333174759	 -2.532791445
H	 -5.293728552	 0.871463159	 -2.566367020
H	 -3.545914798	 1.072315796	 -2.561853706
H	 -4.273969209	 -0.273422058	 -3.434145158
C	 -4.253536310	 -0.516416927	 -1.272226490
H	 -3.312325423	 -1.071481356	 -1.269958125
H	 -5.049793035	 -1.264273180	 -1.270935559
C	 -4.348071875	 0.315034434	 -0.000000000
H	 -3.554322674	 1.068608408	 0.000108592
H	 -5.291983745	 0.868260696	 -0.000137963
C	 -4.253879863	 -0.516332020	 1.272333043
H	 -3.312844143	 -1.071705066	 1.270216944
H	 -5.050364481	 -1.263953358	 1.271105713
C	 -4.346590605	 0.333561120	 2.532693959
H	 -5.293416861	 0.872432238	 2.566093059
H	 -4.274330992	 -0.272806222	 3.434233600
H	 -3.545480604	 1.072239190	 2.561531579
C	 0.431045876	 -0.000144009	 0.000005193
C	 1.834821916	 -0.599008712	 -0.000149471
H	 1.992396063	 -1.218995389	 -0.883775772
H	 2.591978700	 0.186351756	 0.001278902
H	 1.991639268	 -1.221432151	 0.881987464
C	 0.245490941	 0.864316850	 -1.244396396
H	 -0.753144997	 1.302350742	 -1.266901350
H	 0.972365500	 1.677780718	 -1.264377402
H	 0.374892551	 0.272737071	 -2.152012331
C	 0.243457108	 0.859001261	 1.247774229
H	 -0.754822512	 1.297981660	 1.269889091
H	 0.971105287	 1.671614914	 1.273013313
H	 0.370134558	 0.263302844	 2.153000540
C	 -0.601795242	 -1.124225266	 -0.003230196
H	 -0.490196126	 -1.757378363	 0.878245974
H	 -1.615370873	 -0.720546868	 -0.002683284
H	 -0.489434923	 -1.753053455	 -0.887705182
