34
0  1  0  1  0  1  17  17 -1.24014 -1.14309 -1.13930 -1.23635 -1.19830 -1.22075  0.76719  0.76590  0.76482 -1.23663 -0.39977  1.38509 -0.12407 -2.09788
C	 0.035712028	 0.333171791	 2.532791445
H	 0.982854527	 0.871460191	 2.566367020
H	 -0.764959227	 1.072312828	 2.561853706
H	 -0.036904815	 -0.273425026	 3.434145158
C	 -0.057337714	 -0.516419895	 1.272226490
H	 -0.998548601	 -1.071484324	 1.269958125
H	 0.738919010	 -1.264276148	 1.270935559
C	 0.037197851	 0.315031466	 0.000000000
H	 -0.756551351	 1.068605440	 -0.000108592
H	 0.981109721	 0.868257728	 0.000137963
C	 -0.056994162	 -0.516334988	 -1.272333043
H	 -0.998029882	 -1.071708034	 -1.270216944
H	 0.739490457	 -1.263956326	 -1.271105713
C	 0.035716581	 0.333558152	 -2.532693959
H	 0.982542837	 0.872429270	 -2.566093059
H	 -0.036543032	 -0.272809190	 -3.434233600
H	 -0.765393420	 1.072236222	 -2.561531579
C	 -5.115890684	 0.000136027	 -2.280476801
C	 -6.428116070	 0.183392000	 -3.037911890
H	 -7.256571936	 -0.274745138	 -2.495897342
H	 -6.655198413	 1.242112509	 -3.170667285
H	 -6.374177871	 -0.277233834	 -4.025374650
C	 -5.224602745	 0.656003624	 -0.906330554
H	 -4.297204029	 0.536034133	 -0.344910173
H	 -5.427508980	 1.723921278	 -1.000406444
H	 -6.031623480	 0.208381312	 -0.324239583
C	 -3.979293776	 0.650383272	 -3.065061848
H	 -3.029442542	 0.531411639	 -2.542201025
H	 -4.160538335	 1.717951429	 -3.198847026
H	 -3.879633689	 0.197832035	 -4.052788378
C	 -4.829619002	 -1.489767457	 -2.111461863
H	 -4.746743589	 -1.982294566	 -3.081454728
H	 -3.894365950	 -1.646959525	 -1.572124781
H	 -5.628417328	 -1.978168484	 -1.551344548
