34
0  1  0  1  0  1  17  17 -1.68702 -1.45791 -1.53097 -1.76008 -1.64012 -1.71100  2.71082  2.70809  2.70447 -1.62514 -1.65242  5.17004 -0.48796 -4.65480
C	 -4.346981529	 0.333174771	 -2.532791434
H	 -5.294124028	 0.871463171	 -2.566367009
H	 -3.546310274	 1.072315808	 -2.561853695
H	 -4.274364685	 -0.273422046	 -3.434145147
C	 -4.253931786	 -0.516416915	 -1.272226479
H	 -3.312720899	 -1.071481344	 -1.269958114
H	 -5.050188511	 -1.264273168	 -1.270935548
C	 -4.348467351	 0.315034446	 0.000000011
H	 -3.554718150	 1.068608420	 0.000108603
H	 -5.292379221	 0.868260708	 -0.000137952
C	 -4.254275339	 -0.516332008	 1.272333054
H	 -3.313239619	 -1.071705054	 1.270216955
H	 -5.050759957	 -1.263953346	 1.271105724
C	 -4.346986081	 0.333561132	 2.532693970
H	 -5.293812337	 0.872432250	 2.566093070
H	 -4.274726468	 -0.272806210	 3.434233611
H	 -3.545876080	 1.072239202	 2.561531590
C	 0.423065848	 0.000136027	 0.000266309
C	 1.735291233	 0.183392000	 0.757701397
H	 2.563747100	 -0.274745138	 0.215686850
H	 1.962373577	 1.242112509	 0.890456793
H	 1.681353035	 -0.277233834	 1.745164158
C	 0.531777909	 0.656003624	 -1.373879938
H	 -0.395620807	 0.536034133	 -1.935300319
H	 0.734684144	 1.723921278	 -1.279804048
H	 1.338798643	 0.208381312	 -1.955970909
C	 -0.713531061	 0.650383272	 0.784851355
H	 -1.663382295	 0.531411639	 0.261990532
H	 -0.532286502	 1.717951429	 0.918636534
H	 -0.813191147	 0.197832035	 1.772577886
C	 0.136794166	 -1.489767457	 -0.168748629
H	 0.053918752	 -1.982294566	 0.801244236
H	 -0.798458887	 -1.646959525	 -0.708085712
H	 0.935592492	 -1.978168484	 -0.728865944
