34
0  1  0  1  0  1  17  17 -2.36883 -2.19481 -2.24307 -2.41710 -2.35114 -2.39010  1.08955  1.08668  1.08472 -2.37903 -0.67135  2.10955 -0.18380 -3.63343
C	 -2.530363079	 -0.424050709	 0.453377652
H	 -2.559866234	 -0.989265357	 -0.478084961
H	 -2.554016458	 -1.140340336	 1.274729120
H	 -3.436193752	 0.177668376	 0.508842553
C	 -1.276137037	 0.437159550	 0.522096060
H	 -1.278064041	 1.018742473	 1.447156701
H	 -1.280319196	 1.162080263	 -0.295086834
C	 0.002224498	 -0.387191579	 0.451063790
H	 0.007848733	 -1.117888418	 1.265902447
H	 0.006268458	 -0.966998079	 -0.476749232
C	 1.268353270	 0.455920965	 0.521440351
H	 1.262039651	 1.037774905	 1.446317670
H	 1.261654680	 1.180581728	 -0.295963359
C	 2.534986068	 -0.386900074	 0.452757586
H	 2.572460038	 -0.952191900	 -0.478380639
H	 3.432000964	 0.227939534	 0.507648942
H	 2.569227510	 -1.102285411	 1.274527309
C	 -0.000523380	 0.064682599	 5.266332281
C	 0.000548363	 -0.075448506	 6.786065235
H	 -0.886487662	 0.388627536	 7.219434648
H	 0.009799865	 -1.126228753	 7.079075104
H	 0.879208586	 0.404216056	 7.219708304
C	 -1.239978717	 -0.616969432	 4.692433770
H	 -1.263277931	 -0.528012308	 3.605604585
H	 -1.252064346	 -1.678245827	 4.945446971
H	 -2.150922438	 -0.164678174	 5.087518890
C	 1.252081732	 -0.592858208	 4.692861943
H	 1.273408518	 -0.504572543	 3.605890984
H	 1.285212266	 -1.653419048	 4.946954262
H	 2.153893966	 -0.122214896	 5.087283065
C	 -0.014771255	 1.544475090	 4.891711005
H	 0.862994742	 2.055062108	 5.290666136
H	 -0.015295456	 1.670930016	 3.808059316
H	 -0.902877204	 2.037808802	 5.289499146
