34
0  1  0  1  0  1  17  17  7.14334  7.97875  7.56329  6.72788  7.33775  6.97166 19.17074 19.15080 19.11876  7.35248 -11.17645 35.64176 -3.72720 -13.38564
C	 -0.854492030	 0.789225849	 2.532791446
H	 0.092650469	 1.327514249	 2.566367021
H	 -1.655163285	 1.528366886	 2.561853707
H	 -0.927108873	 0.182629032	 3.434145159
C	 -0.947541772	 -0.060365837	 1.272226491
H	 -1.888752659	 -0.615430266	 1.269958126
H	 -0.151285048	 -0.808222090	 1.270935560
C	 -0.853006207	 0.771085524	 0.000000001
H	 -1.646755409	 1.524659498	 -0.000108591
H	 0.090905663	 1.324311786	 0.000137964
C	 -0.947198220	 -0.060280930	 -1.272333042
H	 -1.888233940	 -0.615653976	 -1.270216943
H	 -0.150713601	 -0.807902268	 -1.271105712
C	 -0.854487477	 0.789612210	 -2.532693958
H	 0.092338779	 1.328483328	 -2.566093058
H	 -0.926747090	 0.183244868	 -3.434233599
H	 -1.655597478	 1.528290280	 -2.561531578
C	 -4.451412103	 2.280590106	 -0.000005193
C	 -5.671932171	 3.196863466	 0.000149471
H	 -6.287643455	 3.023333342	 0.883775772
H	 -5.370368445	 4.245260710	 -0.001278902
H	 -6.289375356	 3.021459557	 -0.881987464
C	 -3.609989571	 2.552125248	 1.244396396
H	 -2.731323124	 1.906298102	 1.266901350
H	 -3.268946476	 3.588349015	 1.264377402
H	 -4.187013494	 2.368400441	 2.152012331
C	 -3.613576091	 2.547706103	 -1.247774229
H	 -2.734268104	 1.902660791	 -1.269889091
H	 -3.273656113	 3.584174737	 -1.273013313
H	 -4.192804778	 2.359562784	 -2.153000540
C	 -4.908474469	 0.824082831	 0.003230196
H	 -5.512600695	 0.604153952	 -0.878245974
H	 -4.052090907	 0.148139785	 0.002683284
H	 -5.509235815	 0.606975627	 0.887705182
