34
0  1  0  1  0  1  17  17 -1.24052 -1.14342 -1.13956 -1.23667 -1.19862 -1.22107  0.76766  0.76637  0.76529 -1.23702 -0.39979  1.38572 -0.12418 -2.09877
C	 0.035712028	 0.333171791	 2.532791445
H	 0.982854527	 0.871460191	 2.566367020
H	 -0.764959227	 1.072312828	 2.561853706
H	 -0.036904815	 -0.273425026	 3.434145158
C	 -0.057337714	 -0.516419895	 1.272226490
H	 -0.998548601	 -1.071484324	 1.269958125
H	 0.738919010	 -1.264276148	 1.270935559
C	 0.037197851	 0.315031466	 0.000000000
H	 -0.756551351	 1.068605440	 -0.000108592
H	 0.981109721	 0.868257728	 0.000137963
C	 -0.056994162	 -0.516334988	 -1.272333043
H	 -0.998029882	 -1.071708034	 -1.270216944
H	 0.739490457	 -1.263956326	 -1.271105713
C	 0.035716581	 0.333558152	 -2.532693959
H	 0.982542837	 0.872429270	 -2.566093059
H	 -0.036543032	 -0.272809190	 -3.434233600
H	 -0.765393420	 1.072236222	 -2.561531579
C	 -5.115396591	 0.000136027	 2.280467806
C	 -6.427467313	 0.183392000	 3.038170781
H	 -6.372296878	 -0.274745138	 4.026641881
H	 -6.655978029	 1.242112509	 3.168452161
H	 -7.255666049	 -0.277233834	 2.497727550
C	 -3.979707063	 0.656003624	 3.061688336
H	 -3.029803393	 0.536034133	 2.539247679
H	 -4.162632292	 1.723921278	 3.190372345
H	 -3.879111863	 0.208381312	 4.051634279
C	 -5.226568719	 0.650383272	 0.903853486
H	 -4.298832347	 0.531411639	 0.342688599
H	 -5.433052362	 1.717951429	 0.993923289
H	 -6.032134943	 0.197832035	 0.323682054
C	 -4.825889520	 -1.489767457	 2.117056726
H	 -5.624490277	 -1.982294566	 1.560288080
H	 -3.891183380	 -1.646959525	 1.576772365
H	 -4.740212860	 -1.978168484	 3.088895026
