34
0  1  0  1  0  1  17  17 52.82672 54.64936 53.02486 51.20222 52.73770 51.81892 74.50005 74.48997 74.41629 49.89756 -43.99109 133.51133 -13.77097 -25.85170
C	 -1.498768249	 0.333189672	 3.216854660
H	 -0.551625750	 0.871478072	 3.250430235
H	 -2.299439504	 1.072330709	 3.245916921
H	 -1.571385092	 -0.273407145	 4.118208373
C	 -1.591817991	 -0.516402014	 1.956289705
H	 -2.533028878	 -1.071466443	 1.954021340
H	 -0.795561267	 -1.264258267	 1.954998774
C	 -1.497282426	 0.315049347	 0.684063215
H	 -2.291031628	 1.068623321	 0.683954623
H	 -0.553370556	 0.868275609	 0.684201178
C	 -1.591474439	 -0.516317107	 -0.588269828
H	 -2.532510159	 -1.071690153	 -0.586153729
H	 -0.794989820	 -1.263938445	 -0.587042498
C	 -1.498763696	 0.333576033	 -1.848630744
H	 -0.551937440	 0.872447151	 -1.882029844
H	 -1.571023309	 -0.272791309	 -2.750170385
H	 -2.299873697	 1.072254103	 -1.877468364
C	 -5.115396591	 0.000136027	 2.280467806
C	 -6.427467313	 0.183392000	 3.038170781
H	 -6.372296878	 -0.274745138	 4.026641881
H	 -6.655978029	 1.242112509	 3.168452161
H	 -7.255666049	 -0.277233834	 2.497727550
C	 -3.979707063	 0.656003624	 3.061688336
H	 -3.029803393	 0.536034133	 2.539247679
H	 -4.162632292	 1.723921278	 3.190372345
H	 -3.879111863	 0.208381312	 4.051634279
C	 -5.226568719	 0.650383272	 0.903853486
H	 -4.298832347	 0.531411639	 0.342688599
H	 -5.433052362	 1.717951429	 0.993923289
H	 -6.032134943	 0.197832035	 0.323682054
C	 -4.825889520	 -1.489767457	 2.117056726
H	 -5.624490277	 -1.982294566	 1.560288080
H	 -3.891183380	 -1.646959525	 1.576772365
H	 -4.740212860	 -1.978168484	 3.088895026
