34
0  1  0  1  0  1  17  17 13.54195 14.44244 13.75401 12.85352 13.54248 13.13268 26.82846 26.82222 26.79497 13.44581 -15.15547 49.21855 -5.74021 -14.87705
C	 -3.599527076	 0.333183712	 -2.532791403
H	 -4.546669575	 0.871472112	 -2.566366978
H	 -2.798855821	 1.072324749	 -2.561853664
H	 -3.526910232	 -0.273413105	 -3.434145116
C	 -3.506477333	 -0.516407974	 -1.272226448
H	 -2.565266446	 -1.071472403	 -1.269958083
H	 -4.302734058	 -1.264264227	 -1.270935517
C	 -3.601012898	 0.315043387	 0.000000042
H	 -2.807263697	 1.068617361	 0.000108634
H	 -4.544924768	 0.868269649	 -0.000137921
C	 -3.506820886	 -0.516323067	 1.272333085
H	 -2.565785166	 -1.071696113	 1.270216986
H	 -4.303305504	 -1.263944405	 1.271105755
C	 -3.599531628	 0.333570073	 2.532694001
H	 -4.546357884	 0.872441191	 2.566093101
H	 -3.527272015	 -0.272797269	 3.434233642
H	 -2.798421627	 1.072248143	 2.561531621
C	 0.423065848	 0.000136027	 0.000266309
C	 1.735291233	 0.183392000	 0.757701397
H	 2.563747100	 -0.274745138	 0.215686850
H	 1.962373577	 1.242112509	 0.890456793
H	 1.681353035	 -0.277233834	 1.745164158
C	 0.531777909	 0.656003624	 -1.373879938
H	 -0.395620807	 0.536034133	 -1.935300319
H	 0.734684144	 1.723921278	 -1.279804048
H	 1.338798643	 0.208381312	 -1.955970909
C	 -0.713531061	 0.650383272	 0.784851355
H	 -1.663382295	 0.531411639	 0.261990532
H	 -0.532286502	 1.717951429	 0.918636534
H	 -0.813191147	 0.197832035	 1.772577886
C	 0.136794166	 -1.489767457	 -0.168748629
H	 0.053918752	 -1.982294566	 0.801244236
H	 -0.798458887	 -1.646959525	 -0.708085712
H	 0.935592492	 -1.978168484	 -0.728865944
