34
0  1  0  1  0  1  17  17 -0.35105 -0.09534 -0.12928 -0.38499 -0.23439 -0.32389  4.05930  4.05500  4.04922 -0.22226 -2.23428  7.42729 -0.73070 -4.68457
C	 -0.475831326	 0.333177751	 2.304770375
H	 0.471311173	 0.871466151	 2.338345950
H	 -1.276502581	 1.072318788	 2.333832636
H	 -0.548448169	 -0.273419066	 3.206124088
C	 -0.568881068	 -0.516413935	 1.044205420
H	 -1.510091955	 -1.071478364	 1.041937055
H	 0.227375656	 -1.264270188	 1.042914489
C	 -0.474345503	 0.315037426	 -0.228021070
H	 -1.268094705	 1.068611400	 -0.228129662
H	 0.469566367	 0.868263688	 -0.227883107
C	 -0.568537516	 -0.516329028	 -1.500354113
H	 -1.509573236	 -1.071702074	 -1.498238014
H	 0.227947103	 -1.263950366	 -1.499126783
C	 -0.475826773	 0.333564112	 -2.760715029
H	 0.470999483	 0.872435230	 -2.794114129
H	 -0.548086386	 -0.272803230	 -3.662254670
H	 -1.276936774	 1.072242182	 -2.789552649
C	 -5.115890684	 0.000136027	 -2.280476801
C	 -6.428116070	 0.183392000	 -3.037911890
H	 -7.256571936	 -0.274745138	 -2.495897342
H	 -6.655198413	 1.242112509	 -3.170667285
H	 -6.374177871	 -0.277233834	 -4.025374650
C	 -5.224602745	 0.656003624	 -0.906330554
H	 -4.297204029	 0.536034133	 -0.344910173
H	 -5.427508980	 1.723921278	 -1.000406444
H	 -6.031623480	 0.208381312	 -0.324239583
C	 -3.979293776	 0.650383272	 -3.065061848
H	 -3.029442542	 0.531411639	 -2.542201025
H	 -4.160538335	 1.717951429	 -3.198847026
H	 -3.879633689	 0.197832035	 -4.052788378
C	 -4.829619002	 -1.489767457	 -2.111461863
H	 -4.746743589	 -1.982294566	 -3.081454728
H	 -3.894365950	 -1.646959525	 -1.572124781
H	 -5.628417328	 -1.978168484	 -1.551344548
