34
0  1  0  1  0  1  17  17 81.98923 84.28826 81.75045 79.45142 81.42851 80.23911 109.95618 109.94602 109.83606 75.34582 -55.06372 191.50807 -26.20105 -34.89748
C	 -3.101224107	 0.333189672	 -2.532791382
H	 -4.048366606	 0.871478072	 -2.566366957
H	 -2.300552852	 1.072330709	 -2.561853643
H	 -3.028607263	 -0.273407145	 -3.434145095
C	 -3.008174364	 -0.516402014	 -1.272226427
H	 -2.066963477	 -1.071466443	 -1.269958062
H	 -3.804431089	 -1.264258267	 -1.270935496
C	 -3.102709929	 0.315049347	 0.000000063
H	 -2.308960728	 1.068623321	 0.000108655
H	 -4.046621799	 0.868275609	 -0.000137900
C	 -3.008517917	 -0.516317107	 1.272333106
H	 -2.067482197	 -1.071690153	 1.270217007
H	 -3.805002535	 -1.263938445	 1.271105776
C	 -3.101228659	 0.333576033	 2.532694022
H	 -4.048054915	 0.872447151	 2.566093122
H	 -3.028969046	 -0.272791309	 3.434233663
H	 -2.300118658	 1.072254103	 2.561531642
C	 0.423065848	 0.000136027	 0.000266309
C	 1.735291233	 0.183392000	 0.757701397
H	 2.563747100	 -0.274745138	 0.215686850
H	 1.962373577	 1.242112509	 0.890456793
H	 1.681353035	 -0.277233834	 1.745164158
C	 0.531777909	 0.656003624	 -1.373879938
H	 -0.395620807	 0.536034133	 -1.935300319
H	 0.734684144	 1.723921278	 -1.279804048
H	 1.338798643	 0.208381312	 -1.955970909
C	 -0.713531061	 0.650383272	 0.784851355
H	 -1.663382295	 0.531411639	 0.261990532
H	 -0.532286502	 1.717951429	 0.918636534
H	 -0.813191147	 0.197832035	 1.772577886
C	 0.136794166	 -1.489767457	 -0.168748629
H	 0.053918752	 -1.982294566	 0.801244236
H	 -0.798458887	 -1.646959525	 -0.708085712
H	 0.935592492	 -1.978168484	 -0.728865944
