34
0  1  0  1  0  1  17  17  8.32545  9.15498  8.63541  7.80588  8.41698  8.05407 20.27295 20.26498 20.24220  8.47304 -12.50688 37.72487 -3.45223 -13.29272
C	 -3.597945175	 0.333183663	 -2.532791446
H	 -4.545087674	 0.871472063	 -2.566367021
H	 -2.797273920	 1.072324700	 -2.561853707
H	 -3.525328331	 -0.273413154	 -3.434145159
C	 -3.504895432	 -0.516408023	 -1.272226491
H	 -2.563684545	 -1.071472452	 -1.269958126
H	 -4.301152157	 -1.264264276	 -1.270935560
C	 -3.599430997	 0.315043338	 -0.000000001
H	 -2.805681796	 1.068617312	 0.000108591
H	 -4.543342867	 0.868269600	 -0.000137964
C	 -3.505238985	 -0.516323116	 1.272333042
H	 -2.564203265	 -1.071696162	 1.270216943
H	 -4.301723603	 -1.263944454	 1.271105712
C	 -3.597949727	 0.333570024	 2.532693958
H	 -4.544775983	 0.872441142	 2.566093058
H	 -3.525690114	 -0.272797318	 3.434233599
H	 -2.796839726	 1.072248094	 2.561531578
C	 0.431045876	 -0.000144009	 0.000005193
C	 1.834821916	 -0.599008712	 -0.000149471
H	 1.992396063	 -1.218995389	 -0.883775772
H	 2.591978700	 0.186351756	 0.001278902
H	 1.991639268	 -1.221432151	 0.881987464
C	 0.245490941	 0.864316850	 -1.244396396
H	 -0.753144997	 1.302350742	 -1.266901350
H	 0.972365500	 1.677780718	 -1.264377402
H	 0.374892551	 0.272737071	 -2.152012331
C	 0.243457108	 0.859001261	 1.247774229
H	 -0.754822512	 1.297981660	 1.269889091
H	 0.971105287	 1.671614914	 1.273013313
H	 0.370134558	 0.263302844	 2.153000540
C	 -0.601795242	 -1.124225266	 -0.003230196
H	 -0.490196126	 -1.757378363	 0.878245974
H	 -1.615370873	 -0.720546868	 -0.002683284
H	 -0.489434923	 -1.753053455	 -0.887705182
