34
0  1  0  1  0  1  17  17 -1.65888 -1.42777 -1.43195 -1.66307 -1.55528 -1.61894  2.51107  2.50824  2.50506 -1.61618 -1.35246  4.67003 -0.46407 -4.46968
C	 -0.186838986	 0.447185306	 2.532791445
H	 0.760303513	 0.985473706	 2.566367020
H	 -0.987510241	 1.186326343	 2.561853706
H	 -0.259455829	 -0.159411511	 3.434145158
C	 -0.279888728	 -0.402406380	 1.272226490
H	 -1.221099615	 -0.957470809	 1.269958125
H	 0.516367996	 -1.150262633	 1.270935559
C	 -0.185353163	 0.429044981	 0.000000000
H	 -0.979102365	 1.182618955	 -0.000108592
H	 0.758558707	 0.982271243	 0.000137963
C	 -0.279545176	 -0.402321473	 -1.272333043
H	 -1.220580896	 -0.957694519	 -1.270216944
H	 0.516939443	 -1.149942811	 -1.271105713
C	 -0.186834433	 0.447571667	 -2.532693959
H	 0.759991823	 0.986442785	 -2.566093059
H	 -0.259094046	 -0.158795675	 -3.434233600
H	 -0.987944434	 1.186249737	 -2.561531579
C	 -4.451412103	 2.280590106	 -0.000005193
C	 -5.671932171	 3.196863466	 0.000149471
H	 -6.287643455	 3.023333342	 0.883775772
H	 -5.370368445	 4.245260710	 -0.001278902
H	 -6.289375356	 3.021459557	 -0.881987464
C	 -3.609989571	 2.552125248	 1.244396396
H	 -2.731323124	 1.906298102	 1.266901350
H	 -3.268946476	 3.588349015	 1.264377402
H	 -4.187013494	 2.368400441	 2.152012331
C	 -3.613576091	 2.547706103	 -1.247774229
H	 -2.734268104	 1.902660791	 -1.269889091
H	 -3.273656113	 3.584174737	 -1.273013313
H	 -4.192804778	 2.359562784	 -2.153000540
C	 -4.908474469	 0.824082831	 0.003230196
H	 -5.512600695	 0.604153952	 -0.878245974
H	 -4.052090907	 0.148139785	 0.002683284
H	 -5.509235815	 0.606975627	 0.887705182
