34
0  1  0  1  0  1  17  17 -0.86335 -0.51046 -0.55899 -0.91189 -0.71346 -0.83100  5.06716  5.05913  5.05244 -0.75053 -2.81588  9.44848 -0.96755 -6.41559
C	 -0.409390001	 0.561198820	 2.532791446
H	 0.537752498	 1.099487220	 2.566367021
H	 -1.210061256	 1.300339857	 2.561853707
H	 -0.482006844	 -0.045397997	 3.434145159
C	 -0.502439743	 -0.288392866	 1.272226491
H	 -1.443650630	 -0.843457295	 1.269958126
H	 0.293816981	 -1.036249119	 1.270935560
C	 -0.407904178	 0.543058495	 0.000000001
H	 -1.201653380	 1.296632469	 -0.000108591
H	 0.536007692	 1.096284757	 0.000137964
C	 -0.502096191	 -0.288307959	 -1.272333042
H	 -1.443131911	 -0.843681005	 -1.270216943
H	 0.294388428	 -1.035929297	 -1.271105712
C	 -0.409385448	 0.561585181	 -2.532693958
H	 0.537440808	 1.100456299	 -2.566093058
H	 -0.481645061	 -0.044782161	 -3.434233599
H	 -1.210495449	 1.300263251	 -2.561531578
C	 -4.451412103	 2.280590106	 -0.000005193
C	 -5.671932171	 3.196863466	 0.000149471
H	 -6.287643455	 3.023333342	 0.883775772
H	 -5.370368445	 4.245260710	 -0.001278902
H	 -6.289375356	 3.021459557	 -0.881987464
C	 -3.609989571	 2.552125248	 1.244396396
H	 -2.731323124	 1.906298102	 1.266901350
H	 -3.268946476	 3.588349015	 1.264377402
H	 -4.187013494	 2.368400441	 2.152012331
C	 -3.613576091	 2.547706103	 -1.247774229
H	 -2.734268104	 1.902660791	 -1.269889091
H	 -3.273656113	 3.584174737	 -1.273013313
H	 -4.192804778	 2.359562784	 -2.153000540
C	 -4.908474469	 0.824082831	 0.003230196
H	 -5.512600695	 0.604153952	 -0.878245974
H	 -4.052090907	 0.148139785	 0.002683284
H	 -5.509235815	 0.606975627	 0.887705182
