34
0  1  0  1  0  1  17  17 11.87701 12.60661 12.28196 11.55236 12.10436 11.77407 22.63919 22.62884 22.60237 11.71043 -10.83209 40.25071 -5.35229 -12.35590
C	 -0.671793810	 0.000008506	 0.000260771
C	 -1.110765224	 -1.439635501	 0.255480097
H	 -2.054671482	 -1.469074641	 0.801678913
H	 -1.248602800	 -1.976132733	 -0.684425584
H	 -0.364123632	 -1.974815486	 0.844009567
C	 -1.735271125	 0.718261021	 -0.826465970
H	 -1.443646174	 1.751303137	 -1.021493502
H	 -1.882103578	 0.221351245	 -1.786562662
H	 -2.692914421	 0.731483776	 -0.304072961
C	 0.650347513	 0.000165402	 -0.762460716
H	 0.985210329	 1.019653609	 -0.958777948
H	 0.546268733	 -0.511863035	 -1.720087000
H	 1.428641870	 -0.507156108	 -0.190681868
C	 -0.489290368	 0.721202072	 1.333294244
H	 0.266872085	 0.224760541	 1.943252309
H	 -0.172925020	 1.753453721	 1.176357683
H	 -1.421658645	 0.737018092	 1.899509031
C	 -5.304216998	 0.000000848	 -0.000024676
C	 -4.795804154	 1.439391319	 0.000000000
H	 -5.146346601	 1.975200306	 0.883346579
H	 -3.705258926	 1.468355111	 -0.000799688
H	 -5.147712569	 1.975592650	 -0.882552572
C	 -4.796601697	 -0.719986231	 1.246733818
H	 -5.147678668	 -1.752706868	 1.268998870
H	 -3.706067305	 -0.734302199	 1.272502943
H	 -5.148486141	 -0.223623156	 2.152302279
C	 -4.796499174	 -0.719992989	 -1.246672561
H	 -5.148988785	 -1.752216333	 -1.269756324
H	 -3.705969316	 -0.735831429	 -1.271448297
H	 -5.146859661	 -0.222674365	 -2.152305810
C	 -6.830606347	 0.000587478	 -0.000047952
H	 -7.218782548	 0.509868871	 -0.883248546
H	 -7.219286763	 -1.018728645	 0.000626845
H	 -7.218767023	 0.511061005	 0.882469228
