34
0  1  0  1  0  1  17  17 10.55265 11.27368 10.95733 10.23630 10.77706 10.45338 21.15336 21.14256 21.11636 10.43007 -10.44606 37.78340 -4.77248 -12.13480
C	 -4.095086806	 0.000008506	 -2.121635036
C	 -3.654574678	 -1.439635501	 -1.869084302
H	 -2.709599499	 -1.469074641	 -1.324736912
H	 -4.399638087	 -1.976132733	 -1.279760619
H	 -3.518214002	 -1.974815486	 -2.809959623
C	 -4.279314506	 0.718261021	 -0.787273293
H	 -4.594025781	 1.751303137	 -0.942314144
H	 -5.037366406	 0.221351245	 -0.180064313
H	 -3.348087243	 0.731483776	 -0.219126377
C	 -5.416693650	 0.000165402	 -2.885282265
H	 -5.754140769	 1.019653609	 -3.077123355
H	 -6.193982949	 -0.511863035	 -2.316334255
H	 -5.310665822	 -0.507156108	 -3.845194374
C	 -3.031897675	 0.721202072	 -2.946204390
H	 -2.881739721	 0.224760541	 -3.906039315
H	 -3.325991396	 1.753453721	 -3.141716536
H	 -2.075357146	 0.737018092	 -2.421857169
C	 -0.000574166	 0.000000848	 0.000024676
C	 -0.508987010	 1.439391319	 0.000000000
H	 -0.158444564	 1.975200306	 -0.883346579
H	 -1.599532238	 1.468355111	 0.000799688
H	 -0.157078595	 1.975592650	 0.882552572
C	 -0.508189468	 -0.719986231	 -1.246733818
H	 -0.157112496	 -1.752706868	 -1.268998870
H	 -1.598723859	 -0.734302199	 -1.272502943
H	 -0.156305024	 -0.223623156	 -2.152302279
C	 -0.508291991	 -0.719992989	 1.246672561
H	 -0.155802380	 -1.752216333	 1.269756324
H	 -1.598821849	 -0.735831429	 1.271448297
H	 -0.157931504	 -0.222674365	 2.152305810
C	 1.525815183	 0.000587478	 0.000047952
H	 1.913991384	 0.509868871	 0.883248546
H	 1.914495599	 -1.018728645	 -0.000626845
H	 1.913975859	 0.511061005	 -0.882469228
