34
0  1  0  1  0  1  17  17 60.76154 62.66721 60.87607 58.97040 60.59786 59.62175 84.37076 84.36007 84.27655 56.78984 -42.11057 147.17222 -19.11203 -29.15978
C	 -3.583143060	 0.000008506	 -1.856395488
C	 -3.142630932	 -1.439635501	 -1.603844754
H	 -2.197655753	 -1.469074641	 -1.059497364
H	 -3.887694341	 -1.976132733	 -1.014521071
H	 -3.006270256	 -1.974815486	 -2.544720075
C	 -3.767370760	 0.718261021	 -0.522033745
H	 -4.082082035	 1.751303137	 -0.677074596
H	 -4.525422660	 0.221351245	 0.085175235
H	 -2.836143497	 0.731483776	 0.046113171
C	 -4.904749904	 0.000165402	 -2.620042717
H	 -5.242197023	 1.019653609	 -2.811883807
H	 -5.682039203	 -0.511863035	 -2.051094707
H	 -4.798722076	 -0.507156108	 -3.579954826
C	 -2.519953929	 0.721202072	 -2.680964842
H	 -2.369795975	 0.224760541	 -3.640799767
H	 -2.814047650	 1.753453721	 -2.876476988
H	 -1.563413400	 0.737018092	 -2.156617621
C	 -0.000574166	 0.000000848	 0.000024676
C	 -0.508987010	 1.439391319	 0.000000000
H	 -0.158444564	 1.975200306	 -0.883346579
H	 -1.599532238	 1.468355111	 0.000799688
H	 -0.157078595	 1.975592650	 0.882552572
C	 -0.508189468	 -0.719986231	 -1.246733818
H	 -0.157112496	 -1.752706868	 -1.268998870
H	 -1.598723859	 -0.734302199	 -1.272502943
H	 -0.156305024	 -0.223623156	 -2.152302279
C	 -0.508291991	 -0.719992989	 1.246672561
H	 -0.155802380	 -1.752216333	 1.269756324
H	 -1.598821849	 -0.735831429	 1.271448297
H	 -0.157931504	 -0.222674365	 2.152305810
C	 1.525815183	 0.000587478	 0.000047952
H	 1.913991384	 0.509868871	 0.883248546
H	 1.914495599	 -1.018728645	 -0.000626845
H	 1.913975859	 0.511061005	 -0.882469228
