34
0  1  0  1  0  1  17  17 70.31237 72.29347 70.36840 68.38730 70.09644 69.06888 94.79525 94.78352 94.68998 65.48375 -43.60500 162.75208 -23.04941 -30.61391
C	 -1.250579356	 0.000008506	 -0.000281420
C	 -1.691091483	 -1.439635501	 -0.252832153
H	 -2.636066662	 -1.469074641	 -0.797179543
H	 -0.946028074	 -1.976132733	 -0.842155836
H	 -1.827452159	 -1.974815486	 0.688043168
C	 -1.066351654	 0.718261021	 -1.334643162
H	 -0.751640381	 1.751303137	 -1.179602311
H	 -0.308299755	 0.221351245	 -1.941852142
H	 -1.997578919	 0.731483776	 -1.902790079
C	 0.071027489	 0.000165402	 0.763365810
H	 0.408474607	 1.019653609	 0.955206899
H	 0.848316789	 -0.511863035	 0.194417800
H	 -0.035000340	 -0.507156108	 1.723277919
C	 -2.313768487	 0.721202072	 0.824287934
H	 -2.463926440	 0.224760541	 1.784122860
H	 -2.019674764	 1.753453721	 1.019800081
H	 -3.270309015	 0.737018092	 0.299940714
C	 -5.304216998	 0.000000848	 -0.000024676
C	 -4.795804154	 1.439391319	 0.000000000
H	 -5.146346601	 1.975200306	 0.883346579
H	 -3.705258926	 1.468355111	 -0.000799688
H	 -5.147712569	 1.975592650	 -0.882552572
C	 -4.796601697	 -0.719986231	 1.246733818
H	 -5.147678668	 -1.752706868	 1.268998870
H	 -3.706067305	 -0.734302199	 1.272502943
H	 -5.148486141	 -0.223623156	 2.152302279
C	 -4.796499174	 -0.719992989	 -1.246672561
H	 -5.148988785	 -1.752216333	 -1.269756324
H	 -3.705969316	 -0.735831429	 -1.271448297
H	 -5.146859661	 -0.222674365	 -2.152305810
C	 -6.830606347	 0.000587478	 -0.000047952
H	 -7.218782548	 0.509868871	 -0.883248546
H	 -7.219286763	 -1.018728645	 0.000626845
H	 -7.218767023	 0.511061005	 0.882469228
