34
0  1  0  1  0  1  17  17  9.44566 10.17685  9.85023  9.11904  9.66586  9.33738 19.64327 19.63220 19.60293  9.38327 -11.11010 35.72408 -3.56935 -11.66135
C	 -4.130902700	 2.121652731	 0.000011927
C	 -4.410982932	 0.620999419	 -0.001528786
H	 -3.481261783	 0.050231273	 -0.002597707
H	 -4.982844464	 0.331670186	 0.881372199
H	 -4.983713382	 0.333692882	 -0.884531054
C	 -3.332151634	 2.489860155	 1.247716944
H	 -3.118798690	 3.559535062	 1.270803266
H	 -3.886216246	 2.235967521	 2.152601296
H	 -2.381104978	 1.956041434	 1.274132975
C	 -5.452698335	 2.884972965	 -0.000522551
H	 -5.279109199	 3.961954812	 0.002061751
H	 -6.045317813	 2.635882468	 0.880845529
H	 -6.042492355	 2.639686281	 -0.884844737
C	 -3.329963073	 2.491992621	 -1.245680646
H	 -3.881186087	 2.237000074	 -2.152001052
H	 -3.119066782	 3.562173126	 -1.267952271
H	 -2.377600659	 1.960408692	 -1.269852897
C	 -0.000574166	 0.000000848	 0.000024676
C	 -0.508987010	 1.439391319	 0.000000000
H	 -0.158444564	 1.975200306	 -0.883346579
H	 -1.599532238	 1.468355111	 0.000799688
H	 -0.157078595	 1.975592650	 0.882552572
C	 -0.508189468	 -0.719986231	 -1.246733818
H	 -0.157112496	 -1.752706868	 -1.268998870
H	 -1.598723859	 -0.734302199	 -1.272502943
H	 -0.156305024	 -0.223623156	 -2.152302279
C	 -0.508291991	 -0.719992989	 1.246672561
H	 -0.155802380	 -1.752216333	 1.269756324
H	 -1.598821849	 -0.735831429	 1.271448297
H	 -0.157931504	 -0.222674365	 2.152305810
C	 1.525815183	 0.000587478	 0.000047952
H	 1.913991384	 0.509868871	 0.883248546
H	 1.914495599	 -1.018728645	 -0.000626845
H	 1.913975859	 0.511061005	 -0.882469228
