34
0  1  0  1  0  1  17  17 -1.57388 -1.31554 -1.30979 -1.56813 -1.43898 -1.51525  3.03826  3.03737  3.03358 -1.57213 -1.59736  5.59192 -0.53829 -5.02840
C	 -0.343622680	 0.063512464	 5.750925813
C	 1.079189773	 -0.405453536	 5.457526272
H	 1.263628975	 -0.444782687	 4.383005806
H	 1.810623922	 0.272219292	 5.900261847
H	 1.251453440	 -1.402459578	 5.865646844
C	 -0.550019490	 1.460073990	 5.170095338
H	 -1.561982585	 1.817059437	 5.366942864
H	 0.150899108	 2.171145463	 5.609817106
H	 -0.396910274	 1.460270605	 4.089952983
C	 -0.563917171	 0.103688678	 7.260779441
H	 -1.575133326	 0.437965664	 7.496852629
H	 0.138595284	 0.788637710	 7.737617661
H	 -0.423354078	 -0.884831661	 7.700231179
C	 -1.340085398	 -0.904265196	 5.117779417
H	 -1.211159389	 -1.911240577	 5.517358389
H	 -2.365974495	 -0.590492340	 5.316167270
H	 -1.205381032	 -0.951239590	 4.036202755
C	 0.382522206	 -0.070606972	 0.766895817
C	 -1.040639472	 0.396811255	 1.060935933
H	 -1.771574596	 -0.281500248	 0.618330233
H	 -1.224717770	 0.435735085	 2.135518899
H	 -1.214066031	 1.393724437	 0.653090647
C	 0.590847472	 -1.466818137	 1.347977909
H	 1.602913797	 -1.822949997	 1.150102854
H	 0.438968582	 -1.466745983	 2.428286685
H	 -0.109919056	 -2.178684250	 0.909313901
C	 1.378269048	 0.898435362	 1.399149440
H	 2.404393972	 0.585440740	 1.200733652
H	 1.243780924	 0.945974298	 2.480709914
H	 1.248373180	 1.905022619	 0.998950707
C	 0.601960941	 -0.111034194	 -0.743096590
H	 0.459211824	 0.877039098	 -1.182898192
H	 1.613693987	 -0.443459451	 -0.979672098
H	 -0.099530783	 -0.797549823	 -1.219220690
