34
0  1  0  1  0  1  17  17  9.48917 10.48717  9.97106  8.97305  9.70977  9.26741 23.04494 23.01801 22.97903  9.46705 -13.26503 42.22186 -4.01781 -15.47197
C	 -0.228944600	 0.042329494	 4.963799199
C	 1.193867853	 -0.426636506	 4.670399658
H	 1.378307055	 -0.465965657	 3.595879192
H	 1.925302002	 0.251036322	 5.113135233
H	 1.366131520	 -1.423642548	 5.078520230
C	 -0.435341410	 1.438891020	 4.382968724
H	 -1.447304505	 1.795876467	 4.579816250
H	 0.265577188	 2.149962493	 4.822690492
H	 -0.282232194	 1.439087635	 3.302826369
C	 -0.449239091	 0.082505708	 6.473652827
H	 -1.460455246	 0.416782694	 6.709726015
H	 0.253273364	 0.767454740	 6.950491047
H	 -0.308675998	 -0.906014631	 6.913104565
C	 -1.225407318	 -0.925448166	 4.330652803
H	 -1.096481309	 -1.932423547	 4.730231775
H	 -2.251296415	 -0.611675310	 4.529040656
H	 -1.090702952	 -0.972422560	 3.249076141
C	 0.382522206	 -0.070606972	 0.766895817
C	 -1.040639472	 0.396811255	 1.060935933
H	 -1.771574596	 -0.281500248	 0.618330233
H	 -1.224717770	 0.435735085	 2.135518899
H	 -1.214066031	 1.393724437	 0.653090647
C	 0.590847472	 -1.466818137	 1.347977909
H	 1.602913797	 -1.822949997	 1.150102854
H	 0.438968582	 -1.466745983	 2.428286685
H	 -0.109919056	 -2.178684250	 0.909313901
C	 1.378269048	 0.898435362	 1.399149440
H	 2.404393972	 0.585440740	 1.200733652
H	 1.243780924	 0.945974298	 2.480709914
H	 1.248373180	 1.905022619	 0.998950707
C	 0.601960941	 -0.111034194	 -0.743096590
H	 0.459211824	 0.877039098	 -1.182898192
H	 1.613693987	 -0.443459451	 -0.979672098
H	 -0.099530783	 -0.797549823	 -1.219220690
