34
0  1  0  1  0  1  17  17 -1.05310 -0.99042 -0.96882 -1.03150 -1.01298 -1.02401  0.37345  0.37229  0.37154 -1.08213 -0.18087  0.67169 -0.05919 -1.51376
C	 0.796186309	 0.000278498	 -0.000011923
C	 -0.363377465	 -0.992604755	 0.001528790
H	 -1.322537753	 -0.472826695	 0.002597711
H	 -0.328013165	 -1.632515986	 -0.881372195
H	 -0.325827000	 -1.632257143	 0.884531058
C	 0.715687760	 0.876120923	 -1.247716940
H	 1.535376930	 1.595727447	 -1.270803262
H	 0.772842595	 0.269340577	 -2.152601292
H	 -0.222136143	 1.432842127	 -1.274132971
C	 2.118138841	 -0.762769985	 0.000522555
H	 2.964037911	 -0.073946459	 -0.002061747
H	 2.198729882	 -1.400538756	 -0.880845525
H	 2.200611350	 -1.396189931	 0.884844741
C	 0.716440248	 0.879082507	 1.245680650
H	 0.771221732	 0.274213099	 2.152001056
H	 1.537795607	 1.596814304	 1.267952275
H	 -0.220106145	 1.438060585	 1.269852901
C	 -5.304216998	 0.000000848	 -0.000024676
C	 -4.795804154	 1.439391319	 0.000000000
H	 -5.146346601	 1.975200306	 0.883346579
H	 -3.705258926	 1.468355111	 -0.000799688
H	 -5.147712569	 1.975592650	 -0.882552572
C	 -4.796601697	 -0.719986231	 1.246733818
H	 -5.147678668	 -1.752706868	 1.268998870
H	 -3.706067305	 -0.734302199	 1.272502943
H	 -5.148486141	 -0.223623156	 2.152302279
C	 -4.796499174	 -0.719992989	 -1.246672561
H	 -5.148988785	 -1.752216333	 -1.269756324
H	 -3.705969316	 -0.735831429	 -1.271448297
H	 -5.146859661	 -0.222674365	 -2.152305810
C	 -6.830606347	 0.000587478	 -0.000047952
H	 -7.218782548	 0.509868871	 -0.883248546
H	 -7.219286763	 -1.018728645	 0.000626845
H	 -7.218767023	 0.511061005	 0.882469228
