34
0  1  0  1  0  1  17  17 -0.21077  0.05280  0.07069 -0.19289 -0.04038 -0.13096  4.42992  4.42725  4.42153 -0.17155 -2.16273  7.96469 -0.88703 -5.08647
C	 -4.606510949	 0.000008506	 2.386895239
C	 -4.167539534	 -1.439635501	 2.131675913
H	 -3.223633276	 -1.469074641	 1.585477097
H	 -4.029701958	 -1.976132733	 3.071581594
H	 -4.914181126	 -1.974815486	 1.543146443
C	 -3.543033632	 0.718261021	 3.213621980
H	 -3.834658585	 1.751303137	 3.408649513
H	 -3.396201180	 0.221351245	 4.173718672
H	 -2.585390338	 0.731483776	 2.691228971
C	 -5.928652271	 0.000165402	 3.149616726
H	 -6.263515088	 1.019653609	 3.345933958
H	 -5.824573490	 -0.511863035	 4.107243010
H	 -6.706946629	 -0.507156108	 2.577837879
C	 -4.789014391	 0.721202072	 1.053861766
H	 -5.545176843	 0.224760541	 0.443903701
H	 -5.105379737	 1.753453721	 1.210798327
H	 -3.856646113	 0.737018092	 0.487646979
C	 -0.000574166	 0.000000848	 0.000024676
C	 -0.508987010	 1.439391319	 0.000000000
H	 -0.158444564	 1.975200306	 -0.883346579
H	 -1.599532238	 1.468355111	 0.000799688
H	 -0.157078595	 1.975592650	 0.882552572
C	 -0.508189468	 -0.719986231	 -1.246733818
H	 -0.157112496	 -1.752706868	 -1.268998870
H	 -1.598723859	 -0.734302199	 -1.272502943
H	 -0.156305024	 -0.223623156	 -2.152302279
C	 -0.508291991	 -0.719992989	 1.246672561
H	 -0.155802380	 -1.752216333	 1.269756324
H	 -1.598821849	 -0.735831429	 1.271448297
H	 -0.157931504	 -0.222674365	 2.152305810
C	 1.525815183	 0.000587478	 0.000047952
H	 1.913991384	 0.509868871	 0.883248546
H	 1.914495599	 -1.018728645	 -0.000626845
H	 1.913975859	 0.511061005	 -0.882469228
