34
0  1  0  1  0  1  17  17 11.92610 12.65520 12.33069 11.60159 12.15336 11.82322 22.69314 22.68287 22.65645 11.75766 -10.82188 40.32470 -5.38328 -12.36188
C	 -0.671340075	 0.000008506	 -0.000281431
C	 -1.111852202	 -1.439635501	 -0.252832164
H	 -2.056827381	 -1.469074641	 -0.797179554
H	 -0.366788793	 -1.976132733	 -0.842155847
H	 -1.248212878	 -1.974815486	 0.688043157
C	 -0.487112373	 0.718261021	 -1.334643173
H	 -0.172401100	 1.751303137	 -1.179602322
H	 0.270939526	 0.221351245	 -1.941852153
H	 -1.418339638	 0.731483776	 -1.902790090
C	 0.650266770	 0.000165402	 0.763365799
H	 0.987713888	 1.019653609	 0.955206888
H	 1.427556070	 -0.511863035	 0.194417789
H	 0.544238941	 -0.507156108	 1.723277908
C	 -1.734529206	 0.721202072	 0.824287923
H	 -1.884687159	 0.224760541	 1.784122849
H	 -1.440435483	 1.753453721	 1.019800070
H	 -2.691069734	 0.737018092	 0.299940703
C	 -5.304216998	 0.000000848	 -0.000024676
C	 -4.795804154	 1.439391319	 0.000000000
H	 -5.146346601	 1.975200306	 0.883346579
H	 -3.705258926	 1.468355111	 -0.000799688
H	 -5.147712569	 1.975592650	 -0.882552572
C	 -4.796601697	 -0.719986231	 1.246733818
H	 -5.147678668	 -1.752706868	 1.268998870
H	 -3.706067305	 -0.734302199	 1.272502943
H	 -5.148486141	 -0.223623156	 2.152302279
C	 -4.796499174	 -0.719992989	 -1.246672561
H	 -5.148988785	 -1.752216333	 -1.269756324
H	 -3.705969316	 -0.735831429	 -1.271448297
H	 -5.146859661	 -0.222674365	 -2.152305810
C	 -6.830606347	 0.000587478	 -0.000047952
H	 -7.218782548	 0.509868871	 -0.883248546
H	 -7.219286763	 -1.018728645	 0.000626845
H	 -7.218767023	 0.511061005	 0.882469228
