34
0  1  0  1  0  1  17  17 -1.55940 -1.45441 -1.43595 -1.54093 -1.50759 -1.52723  0.70950  0.70853  0.70767 -1.60701 -0.31472  1.25067 -0.12122 -2.42175
C	 -0.420074734	 0.077634444	 6.275676889
C	 1.002737719	 -0.391331556	 5.982277348
H	 1.187176921	 -0.430660707	 4.907756882
H	 1.734171868	 0.286341272	 6.425012923
H	 1.175001386	 -1.388337598	 6.390397920
C	 -0.626471544	 1.474195970	 5.694846414
H	 -1.638434639	 1.831181417	 5.891693940
H	 0.074447054	 2.185267443	 6.134568182
H	 -0.473362328	 1.474392585	 4.614704059
C	 -0.640369225	 0.117810658	 7.785530517
H	 -1.651585380	 0.452087644	 8.021603705
H	 0.062143230	 0.802759690	 8.262368737
H	 -0.499806132	 -0.870709681	 8.224982255
C	 -1.416537452	 -0.890143216	 5.642530493
H	 -1.287611443	 -1.897118597	 6.042109465
H	 -2.442426549	 -0.576370360	 5.840918346
H	 -1.281833086	 -0.937117610	 4.560953831
C	 0.382522206	 -0.070606972	 0.766895817
C	 -1.040639472	 0.396811255	 1.060935933
H	 -1.771574596	 -0.281500248	 0.618330233
H	 -1.224717770	 0.435735085	 2.135518899
H	 -1.214066031	 1.393724437	 0.653090647
C	 0.590847472	 -1.466818137	 1.347977909
H	 1.602913797	 -1.822949997	 1.150102854
H	 0.438968582	 -1.466745983	 2.428286685
H	 -0.109919056	 -2.178684250	 0.909313901
C	 1.378269048	 0.898435362	 1.399149440
H	 2.404393972	 0.585440740	 1.200733652
H	 1.243780924	 0.945974298	 2.480709914
H	 1.248373180	 1.905022619	 0.998950707
C	 0.601960941	 -0.111034194	 -0.743096590
H	 0.459211824	 0.877039098	 -1.182898192
H	 1.613693987	 -0.443459451	 -0.979672098
H	 -0.099530783	 -0.797549823	 -1.219220690
