34
0  1  0  1  0  1  17  17 -0.29668 -0.03105  0.01060 -0.25502 -0.09876 -0.19072  4.66468  4.66572  4.66189 -0.24841 -2.09590  8.24851 -0.97467 -5.42636
C	 -4.521597030	 -2.386877545	 0.000011926
C	 -3.362033255	 -3.379760797	 -0.001528787
H	 -2.402872966	 -2.859982737	 -0.002597708
H	 -3.397397555	 -4.019672028	 0.881372198
H	 -3.399583720	 -4.019413185	 -0.884531055
C	 -4.441098479	 -1.511035119	 1.247716943
H	 -5.260787651	 -0.791428596	 1.270803265
H	 -4.498253315	 -2.117815465	 2.152601295
H	 -3.503274578	 -0.954313915	 1.274132974
C	 -5.843549561	 -3.149926027	 -0.000522552
H	 -6.689448632	 -2.461102502	 0.002061750
H	 -5.924140602	 -3.787694798	 0.880845528
H	 -5.926022071	 -3.783345973	 -0.884844738
C	 -4.441850969	 -1.508073536	 -1.245680647
H	 -4.496632452	 -2.112942943	 -2.152001053
H	 -5.263206327	 -0.790341738	 -1.267952272
H	 -3.505304575	 -0.949095457	 -1.269852898
C	 -0.000574166	 0.000000848	 0.000024676
C	 -0.508987010	 1.439391319	 0.000000000
H	 -0.158444564	 1.975200306	 -0.883346579
H	 -1.599532238	 1.468355111	 0.000799688
H	 -0.157078595	 1.975592650	 0.882552572
C	 -0.508189468	 -0.719986231	 -1.246733818
H	 -0.157112496	 -1.752706868	 -1.268998870
H	 -1.598723859	 -0.734302199	 -1.272502943
H	 -0.156305024	 -0.223623156	 -2.152302279
C	 -0.508291991	 -0.719992989	 1.246672561
H	 -0.155802380	 -1.752216333	 1.269756324
H	 -1.598821849	 -0.735831429	 1.271448297
H	 -0.157931504	 -0.222674365	 2.152305810
C	 1.525815183	 0.000587478	 0.000047952
H	 1.913991384	 0.509868871	 0.883248546
H	 1.914495599	 -1.018728645	 -0.000626845
H	 1.913975859	 0.511061005	 -0.882469228
