34
0  1  0  1  0  1  17  17 60.81795 62.72492 60.93298 59.02601 60.65505 59.67796 84.44964 84.43895 84.35527 56.85110 -42.15166 147.30763 -19.12432 -29.18056
C	 -3.582736274	 0.000008506	 1.856416150
C	 -3.143764859	 -1.439635501	 1.601196824
H	 -2.199858601	 -1.469074641	 1.054998008
H	 -3.005927283	 -1.976132733	 2.541102505
H	 -3.890406451	 -1.974815486	 1.012667354
C	 -2.519258957	 0.718261021	 2.683142891
H	 -2.810883910	 1.751303137	 2.878170424
H	 -2.372426505	 0.221351245	 3.643239583
H	 -1.561615663	 0.731483776	 2.160749882
C	 -4.904877596	 0.000165402	 2.619137637
H	 -5.239740413	 1.019653609	 2.815454869
H	 -4.800798815	 -0.511863035	 3.576763921
H	 -5.683171954	 -0.507156108	 2.047358790
C	 -3.765239716	 0.721202072	 0.523382677
H	 -4.521402168	 0.224760541	 -0.086575388
H	 -4.081605062	 1.753453721	 0.680319238
H	 -2.832871438	 0.737018092	 -0.042832110
C	 -0.000574166	 0.000000848	 0.000024676
C	 -0.508987010	 1.439391319	 0.000000000
H	 -0.158444564	 1.975200306	 -0.883346579
H	 -1.599532238	 1.468355111	 0.000799688
H	 -0.157078595	 1.975592650	 0.882552572
C	 -0.508189468	 -0.719986231	 -1.246733818
H	 -0.157112496	 -1.752706868	 -1.268998870
H	 -1.598723859	 -0.734302199	 -1.272502943
H	 -0.156305024	 -0.223623156	 -2.152302279
C	 -0.508291991	 -0.719992989	 1.246672561
H	 -0.155802380	 -1.752216333	 1.269756324
H	 -1.598821849	 -0.735831429	 1.271448297
H	 -0.157931504	 -0.222674365	 2.152305810
C	 1.525815183	 0.000587478	 0.000047952
H	 1.913991384	 0.509868871	 0.883248546
H	 1.914495599	 -1.018728645	 -0.000626845
H	 1.913975859	 0.511061005	 -0.882469228
