34
0  1  0  1  0  1  17  17 -1.07087 -0.90723 -0.87693 -1.04057 -0.96106 -1.00829  1.98854  1.98616  1.98317 -1.06643 -1.02317  3.61722 -0.34889 -3.31159
C	 -4.905535714	 2.519512050	 0.000011925
C	 -5.185615946	 1.018858738	 -0.001528788
H	 -4.255894797	 0.448090592	 -0.002597709
H	 -5.757477478	 0.729529505	 0.881372197
H	 -5.758346396	 0.731552201	 -0.884531056
C	 -4.106784648	 2.887719474	 1.247716942
H	 -3.893431704	 3.957394381	 1.270803264
H	 -4.660849260	 2.633826840	 2.152601294
H	 -3.155737992	 2.353900753	 1.274132973
C	 -6.227331349	 3.282832284	 -0.000522553
H	 -6.053742213	 4.359814131	 0.002061749
H	 -6.819950827	 3.033741787	 0.880845527
H	 -6.817125369	 3.037545600	 -0.884844739
C	 -4.104596087	 2.889851940	 -1.245680648
H	 -4.655819101	 2.634859393	 -2.152001054
H	 -3.893699796	 3.960032445	 -1.267952273
H	 -3.152233673	 2.358268011	 -1.269852899
C	 -0.000574166	 0.000000848	 0.000024676
C	 -0.508987010	 1.439391319	 0.000000000
H	 -0.158444564	 1.975200306	 -0.883346579
H	 -1.599532238	 1.468355111	 0.000799688
H	 -0.157078595	 1.975592650	 0.882552572
C	 -0.508189468	 -0.719986231	 -1.246733818
H	 -0.157112496	 -1.752706868	 -1.268998870
H	 -1.598723859	 -0.734302199	 -1.272502943
H	 -0.156305024	 -0.223623156	 -2.152302279
C	 -0.508291991	 -0.719992989	 1.246672561
H	 -0.155802380	 -1.752216333	 1.269756324
H	 -1.598821849	 -0.735831429	 1.271448297
H	 -0.157931504	 -0.222674365	 2.152305810
C	 1.525815183	 0.000587478	 0.000047952
H	 1.913991384	 0.509868871	 0.883248546
H	 1.914495599	 -1.018728645	 -0.000626845
H	 1.913975859	 0.511061005	 -0.882469228
