34
0  1  0  1  0  1  17  17 -1.22128 -1.12738 -1.09180 -1.18570 -1.15081 -1.17148  0.83207  0.83228  0.83110 -1.24566 -0.37932  1.47704 -0.14684 -2.19654
C	 0.486574301	 0.000008506	 0.000260799
C	 0.047602887	 -1.439635501	 0.255480125
H	 -0.896303371	 -1.469074641	 0.801678941
H	 -0.090234689	 -1.976132733	 -0.684425556
H	 0.794244479	 -1.974815486	 0.844009595
C	 -0.576903014	 0.718261021	 -0.826465942
H	 -0.285278063	 1.751303137	 -1.021493474
H	 -0.723735467	 0.221351245	 -1.786562634
H	 -1.534546310	 0.731483776	 -0.304072933
C	 1.808715624	 0.000165402	 -0.762460688
H	 2.143578440	 1.019653609	 -0.958777920
H	 1.704636844	 -0.511863035	 -1.720086972
H	 2.587009981	 -0.507156108	 -0.190681840
C	 0.669077743	 0.721202072	 1.333294272
H	 1.425240196	 0.224760541	 1.943252337
H	 0.985443091	 1.753453721	 1.176357711
H	 -0.263290534	 0.737018092	 1.899509059
C	 -5.304216998	 0.000000848	 -0.000024676
C	 -4.795804154	 1.439391319	 0.000000000
H	 -5.146346601	 1.975200306	 0.883346579
H	 -3.705258926	 1.468355111	 -0.000799688
H	 -5.147712569	 1.975592650	 -0.882552572
C	 -4.796601697	 -0.719986231	 1.246733818
H	 -5.147678668	 -1.752706868	 1.268998870
H	 -3.706067305	 -0.734302199	 1.272502943
H	 -5.148486141	 -0.223623156	 2.152302279
C	 -4.796499174	 -0.719992989	 -1.246672561
H	 -5.148988785	 -1.752216333	 -1.269756324
H	 -3.705969316	 -0.735831429	 -1.271448297
H	 -5.146859661	 -0.222674365	 -2.152305810
C	 -6.830606347	 0.000587478	 -0.000047952
H	 -7.218782548	 0.509868871	 -0.883248546
H	 -7.219286763	 -1.018728645	 0.000626845
H	 -7.218767023	 0.511061005	 0.882469228
