34
0  1  0  1  0  1  17  17 -1.27865 -1.11993 -1.06671 -1.22543 -1.15052 -1.19451  2.01379  2.01680  2.01517 -1.28035 -0.87663  3.53681 -0.38380 -3.55673
C	 -4.772822691	 -2.519497318	 0.000011925
C	 -3.613258916	 -3.512380570	 -0.001528788
H	 -2.654098627	 -2.992602510	 -0.002597709
H	 -3.648623216	 -4.152291801	 0.881372197
H	 -3.650809381	 -4.152032958	 -0.884531056
C	 -4.692324140	 -1.643654892	 1.247716942
H	 -5.512013312	 -0.924048369	 1.270803264
H	 -4.749478976	 -2.250435238	 2.152601294
H	 -3.754500239	 -1.086933688	 1.274132973
C	 -6.094775222	 -3.282545800	 -0.000522553
H	 -6.940674293	 -2.593722275	 0.002061749
H	 -6.175366263	 -3.920314571	 0.880845527
H	 -6.177247732	 -3.915965746	 -0.884844739
C	 -4.693076630	 -1.640693309	 -1.245680648
H	 -4.747858113	 -2.245562716	 -2.152001054
H	 -5.514431988	 -0.922961511	 -1.267952273
H	 -3.756530236	 -1.081715230	 -1.269852899
C	 -0.000574166	 0.000000848	 0.000024676
C	 -0.508987010	 1.439391319	 0.000000000
H	 -0.158444564	 1.975200306	 -0.883346579
H	 -1.599532238	 1.468355111	 0.000799688
H	 -0.157078595	 1.975592650	 0.882552572
C	 -0.508189468	 -0.719986231	 -1.246733818
H	 -0.157112496	 -1.752706868	 -1.268998870
H	 -1.598723859	 -0.734302199	 -1.272502943
H	 -0.156305024	 -0.223623156	 -2.152302279
C	 -0.508291991	 -0.719992989	 1.246672561
H	 -0.155802380	 -1.752216333	 1.269756324
H	 -1.598821849	 -0.735831429	 1.271448297
H	 -0.157931504	 -0.222674365	 2.152305810
C	 1.525815183	 0.000587478	 0.000047952
H	 1.913991384	 0.509868871	 0.883248546
H	 1.914495599	 -1.018728645	 -0.000626845
H	 1.913975859	 0.511061005	 -0.882469228
