34
0  1  0  1  0  1  17  17 -0.21033  0.05316  0.07075 -0.19274 -0.04026 -0.13083  4.42734  4.42463  4.41891 -0.17130 -2.16156  7.96018 -0.88685 -5.08308
C	 -4.607030551	 0.000008506	 -2.386874583
C	 -4.166518423	 -1.439635501	 -2.134323849
H	 -3.221543244	 -1.469074641	 -1.589976459
H	 -4.911581832	 -1.976132733	 -1.545000166
H	 -4.030157747	 -1.974815486	 -3.075199170
C	 -4.791258251	 0.718261021	 -1.052512840
H	 -5.105969526	 1.751303137	 -1.207553691
H	 -5.549310151	 0.221351245	 -0.445303860
H	 -3.860030988	 0.731483776	 -0.484365924
C	 -5.928637395	 0.000165402	 -3.150521812
H	 -6.266084514	 1.019653609	 -3.342362902
H	 -6.705926694	 -0.511863035	 -2.581573802
H	 -5.822609567	 -0.507156108	 -4.110433921
C	 -3.543841420	 0.721202072	 -3.211443937
H	 -3.393683466	 0.224760541	 -4.171278862
H	 -3.837935141	 1.753453721	 -3.406956083
H	 -2.587300891	 0.737018092	 -2.687096716
C	 -0.000574166	 0.000000848	 0.000024676
C	 -0.508987010	 1.439391319	 0.000000000
H	 -0.158444564	 1.975200306	 -0.883346579
H	 -1.599532238	 1.468355111	 0.000799688
H	 -0.157078595	 1.975592650	 0.882552572
C	 -0.508189468	 -0.719986231	 -1.246733818
H	 -0.157112496	 -1.752706868	 -1.268998870
H	 -1.598723859	 -0.734302199	 -1.272502943
H	 -0.156305024	 -0.223623156	 -2.152302279
C	 -0.508291991	 -0.719992989	 1.246672561
H	 -0.155802380	 -1.752216333	 1.269756324
H	 -1.598821849	 -0.735831429	 1.271448297
H	 -0.157931504	 -0.222674365	 2.152305810
C	 1.525815183	 0.000587478	 0.000047952
H	 1.913991384	 0.509868871	 0.883248546
H	 1.914495599	 -1.018728645	 -0.000626845
H	 1.913975859	 0.511061005	 -0.882469228
