34
0  1  0  1  0  1  17  17 -1.23933 -1.14377 -1.11112 -1.20668 -1.17141 -1.19229  0.84131  0.84150  0.84034 -1.26491 -0.37482  1.48096 -0.14521 -2.22583
C	 -5.118398286	 0.000008506	 2.652134783
C	 -4.679426871	 -1.439635501	 2.396915457
H	 -3.735520613	 -1.469074641	 1.850716641
H	 -4.541589295	 -1.976132733	 3.336821138
H	 -5.426068463	 -1.974815486	 1.808385987
C	 -4.054920969	 0.718261021	 3.478861524
H	 -4.346545922	 1.751303137	 3.673889057
H	 -3.908088517	 0.221351245	 4.438958216
H	 -3.097277675	 0.731483776	 2.956468515
C	 -6.440539608	 0.000165402	 3.414856270
H	 -6.775402425	 1.019653609	 3.611173502
H	 -6.336460827	 -0.511863035	 4.372482554
H	 -7.218833966	 -0.507156108	 2.843077423
C	 -5.300901728	 0.721202072	 1.319101310
H	 -6.057064180	 0.224760541	 0.709143245
H	 -5.617267074	 1.753453721	 1.476037871
H	 -4.368533450	 0.737018092	 0.752886523
C	 -0.000574166	 0.000000848	 0.000024676
C	 -0.508987010	 1.439391319	 0.000000000
H	 -0.158444564	 1.975200306	 -0.883346579
H	 -1.599532238	 1.468355111	 0.000799688
H	 -0.157078595	 1.975592650	 0.882552572
C	 -0.508189468	 -0.719986231	 -1.246733818
H	 -0.157112496	 -1.752706868	 -1.268998870
H	 -1.598723859	 -0.734302199	 -1.272502943
H	 -0.156305024	 -0.223623156	 -2.152302279
C	 -0.508291991	 -0.719992989	 1.246672561
H	 -0.155802380	 -1.752216333	 1.269756324
H	 -1.598821849	 -0.735831429	 1.271448297
H	 -0.157931504	 -0.222674365	 2.152305810
C	 1.525815183	 0.000587478	 0.000047952
H	 1.913991384	 0.509868871	 0.883248546
H	 1.914495599	 -1.018728645	 -0.000626845
H	 1.913975859	 0.511061005	 -0.882469228
