34
0  1  0  1  0  1  17  17 77.63595 79.62261 77.53861 75.55195 77.27316 76.24510 104.25190 104.24249 104.16430 72.87617 -38.77074 173.73146 -29.19984 -32.88470
C	 -3.516694385	 -1.856398454	 0.000011929
C	 -2.357130610	 -2.849281706	 -0.001528784
H	 -1.397970321	 -2.329503646	 -0.002597705
H	 -2.392494910	 -3.489192937	 0.881372201
H	 -2.394681075	 -3.488934094	 -0.884531052
C	 -3.436195834	 -0.980556028	 1.247716946
H	 -4.255885006	 -0.260949505	 1.270803268
H	 -3.493350670	 -1.587336374	 2.152601298
H	 -2.498371933	 -0.423834824	 1.274132977
C	 -4.838646916	 -2.619446936	 -0.000522549
H	 -5.684545987	 -1.930623411	 0.002061753
H	 -4.919237957	 -3.257215707	 0.880845531
H	 -4.921119426	 -3.252866882	 -0.884844735
C	 -3.436948324	 -0.977594445	 -1.245680644
H	 -3.491729807	 -1.582463852	 -2.152001050
H	 -4.258303682	 -0.259862647	 -1.267952269
H	 -2.500401930	 -0.418616366	 -1.269852895
C	 -0.000574166	 0.000000848	 0.000024676
C	 -0.508987010	 1.439391319	 0.000000000
H	 -0.158444564	 1.975200306	 -0.883346579
H	 -1.599532238	 1.468355111	 0.000799688
H	 -0.157078595	 1.975592650	 0.882552572
C	 -0.508189468	 -0.719986231	 -1.246733818
H	 -0.157112496	 -1.752706868	 -1.268998870
H	 -1.598723859	 -0.734302199	 -1.272502943
H	 -0.156305024	 -0.223623156	 -2.152302279
C	 -0.508291991	 -0.719992989	 1.246672561
H	 -0.155802380	 -1.752216333	 1.269756324
H	 -1.598821849	 -0.735831429	 1.271448297
H	 -0.157931504	 -0.222674365	 2.152305810
C	 1.525815183	 0.000587478	 0.000047952
H	 1.913991384	 0.509868871	 0.883248546
H	 1.914495599	 -1.018728645	 -0.000626845
H	 1.913975859	 0.511061005	 -0.882469228
