34
0  1  0  1  0  1  17  17 -0.14815  0.12283  0.12497 -0.14601  0.01241 -0.08209  4.41871  4.41260  4.40570 -0.10213 -2.36426  8.07405 -0.80233 -5.00959
C	 -4.647324710	 2.386892277	 0.000011926
C	 -4.927404942	 0.886238965	 -0.001528787
H	 -3.997683793	 0.315470819	 -0.002597708
H	 -5.499266474	 0.596909732	 0.881372198
H	 -5.500135392	 0.598932428	 -0.884531055
C	 -3.848573644	 2.755099701	 1.247716943
H	 -3.635220700	 3.824774608	 1.270803265
H	 -4.402638256	 2.501207067	 2.152601295
H	 -2.897526988	 2.221280980	 1.274132974
C	 -5.969120345	 3.150212511	 -0.000522552
H	 -5.795531209	 4.227194358	 0.002061750
H	 -6.561739823	 2.901122014	 0.880845528
H	 -6.558914365	 2.904925827	 -0.884844738
C	 -3.846385083	 2.757232167	 -1.245680647
H	 -4.397608097	 2.502239620	 -2.152001053
H	 -3.635488792	 3.827412672	 -1.267952272
H	 -2.894022669	 2.225648238	 -1.269852898
C	 -0.000574166	 0.000000848	 0.000024676
C	 -0.508987010	 1.439391319	 0.000000000
H	 -0.158444564	 1.975200306	 -0.883346579
H	 -1.599532238	 1.468355111	 0.000799688
H	 -0.157078595	 1.975592650	 0.882552572
C	 -0.508189468	 -0.719986231	 -1.246733818
H	 -0.157112496	 -1.752706868	 -1.268998870
H	 -1.598723859	 -0.734302199	 -1.272502943
H	 -0.156305024	 -0.223623156	 -2.152302279
C	 -0.508291991	 -0.719992989	 1.246672561
H	 -0.155802380	 -1.752216333	 1.269756324
H	 -1.598821849	 -0.735831429	 1.271448297
H	 -0.157931504	 -0.222674365	 2.152305810
C	 1.525815183	 0.000587478	 0.000047952
H	 1.913991384	 0.509868871	 0.883248546
H	 1.914495599	 -1.018728645	 -0.000626845
H	 1.913975859	 0.511061005	 -0.882469228
