34
0  1  0  1  0  1  17  17 -0.80625 -0.76991 -0.75859 -0.79493 -0.78698 -0.79169  0.16841  0.16761  0.16733 -0.83443 -0.05988  0.27620 -0.02465 -1.02610
C	 -5.680168728	 2.917371369	 0.000011922
C	 -5.960248960	 1.416718057	 -0.001528791
H	 -5.030527811	 0.845949911	 -0.002597712
H	 -6.532110492	 1.127388824	 0.881372194
H	 -6.532979410	 1.129411520	 -0.884531059
C	 -4.881417662	 3.285578793	 1.247716939
H	 -4.668064718	 4.355253700	 1.270803261
H	 -5.435482274	 3.031686159	 2.152601291
H	 -3.930371006	 2.751760072	 1.274132970
C	 -7.001964363	 3.680691603	 -0.000522556
H	 -6.828375227	 4.757673450	 0.002061746
H	 -7.594583841	 3.431601106	 0.880845524
H	 -7.591758383	 3.435404919	 -0.884844742
C	 -4.879229101	 3.287711259	 -1.245680651
H	 -5.430452115	 3.032718712	 -2.152001057
H	 -4.668332810	 4.357891764	 -1.267952276
H	 -3.926866687	 2.756127330	 -1.269852902
C	 -0.000574166	 0.000000848	 0.000024676
C	 -0.508987010	 1.439391319	 0.000000000
H	 -0.158444564	 1.975200306	 -0.883346579
H	 -1.599532238	 1.468355111	 0.000799688
H	 -0.157078595	 1.975592650	 0.882552572
C	 -0.508189468	 -0.719986231	 -1.246733818
H	 -0.157112496	 -1.752706868	 -1.268998870
H	 -1.598723859	 -0.734302199	 -1.272502943
H	 -0.156305024	 -0.223623156	 -2.152302279
C	 -0.508291991	 -0.719992989	 1.246672561
H	 -0.155802380	 -1.752216333	 1.269756324
H	 -1.598821849	 -0.735831429	 1.271448297
H	 -0.157931504	 -0.222674365	 2.152305810
C	 1.525815183	 0.000587478	 0.000047952
H	 1.913991384	 0.509868871	 0.883248546
H	 1.914495599	 -1.018728645	 -0.000626845
H	 1.913975859	 0.511061005	 -0.882469228
