34
0  1  0  1  0  1  17  17 -1.16589 -1.01152 -0.95005 -1.10442 -1.03001 -1.07364  2.09426  2.09816  2.09670 -1.16007 -0.88729  3.66167 -0.41257 -3.52187
C	 0.118533542	 -0.000263753	 -0.000011925
C	 0.398613775	 -1.500917065	 0.001528788
H	 -0.531107373	 -2.071685211	 0.002597709
H	 0.970475307	 -1.790246298	 -0.881372197
H	 0.971344225	 -1.788223602	 0.884531056
C	 -0.680217522	 0.367943671	 -1.247716942
H	 -0.893570468	 1.437618578	 -1.270803264
H	 -0.126152911	 0.114051037	 -2.152601294
H	 -1.631264180	 -0.165875051	 -1.274132973
C	 1.440329178	 0.763056481	 0.000522553
H	 1.266740041	 1.840038328	 -0.002061749
H	 2.032948656	 0.513965984	 -0.880845527
H	 2.030123197	 0.517769796	 0.884844739
C	 -0.682406085	 0.370076137	 1.245680648
H	 -0.131183070	 0.115083590	 2.152001054
H	 -0.893302375	 1.440256642	 1.267952273
H	 -1.634768498	 -0.161507792	 1.269852899
C	 -5.304216998	 0.000000848	 -0.000024676
C	 -4.795804154	 1.439391319	 0.000000000
H	 -5.146346601	 1.975200306	 0.883346579
H	 -3.705258926	 1.468355111	 -0.000799688
H	 -5.147712569	 1.975592650	 -0.882552572
C	 -4.796601697	 -0.719986231	 1.246733818
H	 -5.147678668	 -1.752706868	 1.268998870
H	 -3.706067305	 -0.734302199	 1.272502943
H	 -5.148486141	 -0.223623156	 2.152302279
C	 -4.796499174	 -0.719992989	 -1.246672561
H	 -5.148988785	 -1.752216333	 -1.269756324
H	 -3.705969316	 -0.735831429	 -1.271448297
H	 -5.146859661	 -0.222674365	 -2.152305810
C	 -6.830606347	 0.000587478	 -0.000047952
H	 -7.218782548	 0.509868871	 -0.883248546
H	 -7.219286763	 -1.018728645	 0.000626845
H	 -7.218767023	 0.511061005	 0.882469228
