34
0  1  0  1  0  1  17  17 -1.05667 -0.99848 -0.97779 -1.03597 -1.01974 -1.02938  0.36320  0.36298  0.36238 -1.08961 -0.14508  0.61867 -0.05806 -1.50514
C	 -5.374341955	 0.000008506	 2.784754555
C	 -4.935370540	 -1.439635501	 2.529535229
H	 -3.991464282	 -1.469074641	 1.983336413
H	 -4.797532964	 -1.976132733	 3.469440910
H	 -5.682012132	 -1.974815486	 1.941005759
C	 -4.310864638	 0.718261021	 3.611481296
H	 -4.602489591	 1.751303137	 3.806508829
H	 -4.164032186	 0.221351245	 4.571577988
H	 -3.353221344	 0.731483776	 3.089088287
C	 -6.696483277	 0.000165402	 3.547476042
H	 -7.031346094	 1.019653609	 3.743793274
H	 -6.592404496	 -0.511863035	 4.505102326
H	 -7.474777635	 -0.507156108	 2.975697195
C	 -5.556845397	 0.721202072	 1.451721082
H	 -6.313007849	 0.224760541	 0.841763017
H	 -5.873210743	 1.753453721	 1.608657643
H	 -4.624477119	 0.737018092	 0.885506295
C	 -0.000574166	 0.000000848	 0.000024676
C	 -0.508987010	 1.439391319	 0.000000000
H	 -0.158444564	 1.975200306	 -0.883346579
H	 -1.599532238	 1.468355111	 0.000799688
H	 -0.157078595	 1.975592650	 0.882552572
C	 -0.508189468	 -0.719986231	 -1.246733818
H	 -0.157112496	 -1.752706868	 -1.268998870
H	 -1.598723859	 -0.734302199	 -1.272502943
H	 -0.156305024	 -0.223623156	 -2.152302279
C	 -0.508291991	 -0.719992989	 1.246672561
H	 -0.155802380	 -1.752216333	 1.269756324
H	 -1.598821849	 -0.735831429	 1.271448297
H	 -0.157931504	 -0.222674365	 2.152305810
C	 1.525815183	 0.000587478	 0.000047952
H	 1.913991384	 0.509868871	 0.883248546
H	 1.914495599	 -1.018728645	 -0.000626845
H	 1.913975859	 0.511061005	 -0.882469228
