34
0  1  0  1  0  1  17  17  9.45014 10.20496  9.87765  9.12282  9.68573  9.34816 19.83386 19.82170 19.79293  9.42373 -11.50543 36.25195 -3.46183 -11.86096
C	 -0.656538059	 0.000278467	 -0.000011927
C	 -1.816101833	 -0.992604786	 0.001528786
H	 -2.775262121	 -0.472826726	 0.002597707
H	 -1.780737533	 -1.632516017	 -0.881372199
H	 -1.778551368	 -1.632257174	 0.884531054
C	 -0.737036608	 0.876120892	 -1.247716944
H	 0.082652562	 1.595727416	 -1.270803266
H	 -0.679881773	 0.269340546	 -2.152601296
H	 -1.674860511	 1.432842096	 -1.274132975
C	 0.665414473	 -0.762770016	 0.000522551
H	 1.511313543	 -0.073946490	 -0.002061751
H	 0.746005514	 -1.400538787	 -0.880845529
H	 0.747886982	 -1.396189962	 0.884844737
C	 -0.736284120	 0.879082476	 1.245680646
H	 -0.681502636	 0.274213068	 2.152001052
H	 0.085071239	 1.596814273	 1.267952271
H	 -1.672830513	 1.438060554	 1.269852897
C	 -5.304216998	 0.000000848	 -0.000024676
C	 -4.795804154	 1.439391319	 0.000000000
H	 -5.146346601	 1.975200306	 0.883346579
H	 -3.705258926	 1.468355111	 -0.000799688
H	 -5.147712569	 1.975592650	 -0.882552572
C	 -4.796601697	 -0.719986231	 1.246733818
H	 -5.147678668	 -1.752706868	 1.268998870
H	 -3.706067305	 -0.734302199	 1.272502943
H	 -5.148486141	 -0.223623156	 2.152302279
C	 -4.796499174	 -0.719992989	 -1.246672561
H	 -5.148988785	 -1.752216333	 -1.269756324
H	 -3.705969316	 -0.735831429	 -1.271448297
H	 -5.146859661	 -0.222674365	 -2.152305810
C	 -6.830606347	 0.000587478	 -0.000047952
H	 -7.218782548	 0.509868871	 -0.883248546
H	 -7.219286763	 -1.018728645	 0.000626845
H	 -7.218767023	 0.511061005	 0.882469228
