34
0  1  0  1  0  1  17  17 -1.14536 -0.98766 -0.94925 -1.10695 -1.03228 -1.07639  1.94357  1.94328  1.94105 -1.14861 -0.91978  3.47357 -0.36193 -3.34047
C	 -4.863002424	 0.000008506	 -2.519494357
C	 -4.422490296	 -1.439635501	 -2.266943623
H	 -3.477515117	 -1.469074641	 -1.722596233
H	 -5.167553705	 -1.976132733	 -1.677619940
H	 -4.286129620	 -1.974815486	 -3.207818944
C	 -5.047230124	 0.718261021	 -1.185132614
H	 -5.361941399	 1.751303137	 -1.340173465
H	 -5.805282024	 0.221351245	 -0.577923634
H	 -4.116002861	 0.731483776	 -0.616985698
C	 -6.184609268	 0.000165402	 -3.283141586
H	 -6.522056387	 1.019653609	 -3.474982676
H	 -6.961898567	 -0.511863035	 -2.714193576
H	 -6.078581440	 -0.507156108	 -4.243053695
C	 -3.799813293	 0.721202072	 -3.344063711
H	 -3.649655339	 0.224760541	 -4.303898636
H	 -4.093907014	 1.753453721	 -3.539575857
H	 -2.843272764	 0.737018092	 -2.819716490
C	 -0.000574166	 0.000000848	 0.000024676
C	 -0.508987010	 1.439391319	 0.000000000
H	 -0.158444564	 1.975200306	 -0.883346579
H	 -1.599532238	 1.468355111	 0.000799688
H	 -0.157078595	 1.975592650	 0.882552572
C	 -0.508189468	 -0.719986231	 -1.246733818
H	 -0.157112496	 -1.752706868	 -1.268998870
H	 -1.598723859	 -0.734302199	 -1.272502943
H	 -0.156305024	 -0.223623156	 -2.152302279
C	 -0.508291991	 -0.719992989	 1.246672561
H	 -0.155802380	 -1.752216333	 1.269756324
H	 -1.598821849	 -0.735831429	 1.271448297
H	 -0.157931504	 -0.222674365	 2.152305810
C	 1.525815183	 0.000587478	 0.000047952
H	 1.913991384	 0.509868871	 0.883248546
H	 1.914495599	 -1.018728645	 -0.000626845
H	 1.913975859	 0.511061005	 -0.882469228
