34
0  1  0  1  0  1  17  17 -0.82431 -0.78700 -0.77482 -0.81214 -0.80367 -0.80869  0.16176  0.16085  0.16056 -0.85290 -0.06929  0.27940 -0.02442 -1.03860
C	 1.086731182	 0.000278504	 -0.000011922
C	 -0.072832592	 -0.992604749	 0.001528791
H	 -1.031992880	 -0.472826689	 0.002597712
H	 -0.037468292	 -1.632515980	 -0.881372194
H	 -0.035282127	 -1.632257137	 0.884531059
C	 1.006232633	 0.876120929	 -1.247716939
H	 1.825921803	 1.595727453	 -1.270803261
H	 1.063387468	 0.269340583	 -2.152601291
H	 0.068408730	 1.432842133	 -1.274132970
C	 2.408683714	 -0.762769979	 0.000522556
H	 3.254582784	 -0.073946453	 -0.002061746
H	 2.489274755	 -1.400538750	 -0.880845524
H	 2.491156223	 -1.396189925	 0.884844742
C	 1.006985121	 0.879082513	 1.245680651
H	 1.061766605	 0.274213105	 2.152001057
H	 1.828340480	 1.596814310	 1.267952276
H	 0.070438728	 1.438060591	 1.269852902
C	 -5.304216998	 0.000000848	 -0.000024676
C	 -4.795804154	 1.439391319	 0.000000000
H	 -5.146346601	 1.975200306	 0.883346579
H	 -3.705258926	 1.468355111	 -0.000799688
H	 -5.147712569	 1.975592650	 -0.882552572
C	 -4.796601697	 -0.719986231	 1.246733818
H	 -5.147678668	 -1.752706868	 1.268998870
H	 -3.706067305	 -0.734302199	 1.272502943
H	 -5.148486141	 -0.223623156	 2.152302279
C	 -4.796499174	 -0.719992989	 -1.246672561
H	 -5.148988785	 -1.752216333	 -1.269756324
H	 -3.705969316	 -0.735831429	 -1.271448297
H	 -5.146859661	 -0.222674365	 -2.152305810
C	 -6.830606347	 0.000587478	 -0.000047952
H	 -7.218782548	 0.509868871	 -0.883248546
H	 -7.219286763	 -1.018728645	 0.000626845
H	 -7.218767023	 0.511061005	 0.882469228
