34
0  1  0  1  0  1  17  17 -1.22100 -1.12722 -1.09154 -1.18532 -1.15040 -1.17108  0.83073  0.83096  0.82979 -1.24540 -0.37836  1.47432 -0.14667 -2.19469
C	 0.487138487	 0.000008506	 -0.000281452
C	 0.046626360	 -1.439635501	 -0.252832185
H	 -0.898348819	 -1.469074641	 -0.797179575
H	 0.791689769	 -1.976132733	 -0.842155868
H	 -0.089734316	 -1.974815486	 0.688043136
C	 0.671366189	 0.718261021	 -1.334643194
H	 0.986077462	 1.751303137	 -1.179602343
H	 1.429418088	 0.221351245	 -1.941852174
H	 -0.259861076	 0.731483776	 -1.902790111
C	 1.808745332	 0.000165402	 0.763365778
H	 2.146192450	 1.019653609	 0.955206867
H	 2.586034632	 -0.511863035	 0.194417768
H	 1.702717503	 -0.507156108	 1.723277887
C	 -0.576050644	 0.721202072	 0.824287902
H	 -0.726208597	 0.224760541	 1.784122828
H	 -0.281956921	 1.753453721	 1.019800049
H	 -1.532591172	 0.737018092	 0.299940682
C	 -5.304216998	 0.000000848	 -0.000024676
C	 -4.795804154	 1.439391319	 0.000000000
H	 -5.146346601	 1.975200306	 0.883346579
H	 -3.705258926	 1.468355111	 -0.000799688
H	 -5.147712569	 1.975592650	 -0.882552572
C	 -4.796601697	 -0.719986231	 1.246733818
H	 -5.147678668	 -1.752706868	 1.268998870
H	 -3.706067305	 -0.734302199	 1.272502943
H	 -5.148486141	 -0.223623156	 2.152302279
C	 -4.796499174	 -0.719992989	 -1.246672561
H	 -5.148988785	 -1.752216333	 -1.269756324
H	 -3.705969316	 -0.735831429	 -1.271448297
H	 -5.146859661	 -0.222674365	 -2.152305810
C	 -6.830606347	 0.000587478	 -0.000047952
H	 -7.218782548	 0.509868871	 -0.883248546
H	 -7.219286763	 -1.018728645	 0.000626845
H	 -7.218767023	 0.511061005	 0.882469228
