34
0  1  0  1  0  1  17  17 -0.81443 -0.78032 -0.76915 -0.80326 -0.79612 -0.80038  0.14957  0.14923  0.14893 -0.84575 -0.05452  0.24708 -0.02314 -1.01516
C	 1.066377768	 0.000008506	 -0.000281463
C	 0.625865641	 -1.439635501	 -0.252832196
H	 -0.319109538	 -1.469074641	 -0.797179586
H	 1.370929050	 -1.976132733	 -0.842155879
H	 0.489504965	 -1.974815486	 0.688043125
C	 1.250605470	 0.718261021	 -1.334643205
H	 1.565316743	 1.751303137	 -1.179602354
H	 2.008657369	 0.221351245	 -1.941852185
H	 0.319378205	 0.731483776	 -1.902790122
C	 2.387984613	 0.000165402	 0.763365767
H	 2.725431731	 1.019653609	 0.955206856
H	 3.165273913	 -0.511863035	 0.194417757
H	 2.281956784	 -0.507156108	 1.723277876
C	 0.003188637	 0.721202072	 0.824287891
H	 -0.146969316	 0.224760541	 1.784122817
H	 0.297282360	 1.753453721	 1.019800038
H	 -0.953351891	 0.737018092	 0.299940671
C	 -5.304216998	 0.000000848	 -0.000024676
C	 -4.795804154	 1.439391319	 0.000000000
H	 -5.146346601	 1.975200306	 0.883346579
H	 -3.705258926	 1.468355111	 -0.000799688
H	 -5.147712569	 1.975592650	 -0.882552572
C	 -4.796601697	 -0.719986231	 1.246733818
H	 -5.147678668	 -1.752706868	 1.268998870
H	 -3.706067305	 -0.734302199	 1.272502943
H	 -5.148486141	 -0.223623156	 2.152302279
C	 -4.796499174	 -0.719992989	 -1.246672561
H	 -5.148988785	 -1.752216333	 -1.269756324
H	 -3.705969316	 -0.735831429	 -1.271448297
H	 -5.146859661	 -0.222674365	 -2.152305810
C	 -6.830606347	 0.000587478	 -0.000047952
H	 -7.218782548	 0.509868871	 -0.883248546
H	 -7.219286763	 -1.018728645	 0.000626845
H	 -7.218767023	 0.511061005	 0.882469228
