34
0  1  0  1  0  1  17  17 46.74490 48.96259 46.91569 44.69800 46.59203 45.46033 73.62046 73.61396 73.52694 44.64894 -44.29868 132.40339 -11.41452 -32.04125
C	 -0.152492547	 0.028207514	 4.439048123
C	 1.270319906	 -0.440758486	 4.145648582
H	 1.454759108	 -0.480087637	 3.071128116
H	 2.001754055	 0.236914342	 4.588384157
H	 1.442583573	 -1.437764528	 4.553769154
C	 -0.358889357	 1.424769040	 3.858217648
H	 -1.370852452	 1.781754487	 4.055065174
H	 0.342029241	 2.135840513	 4.297939416
H	 -0.205780141	 1.424965655	 2.778075293
C	 -0.372787038	 0.068383728	 5.948901751
H	 -1.384003193	 0.402660714	 6.184974939
H	 0.329725417	 0.753332760	 6.425739971
H	 -0.232223945	 -0.920136611	 6.388353489
C	 -1.148955265	 -0.939570146	 3.805901727
H	 -1.020029256	 -1.946545527	 4.205480699
H	 -2.174844362	 -0.625797290	 4.004289580
H	 -1.014250899	 -0.986544540	 2.724325065
C	 0.382522206	 -0.070606972	 0.766895817
C	 -1.040639472	 0.396811255	 1.060935933
H	 -1.771574596	 -0.281500248	 0.618330233
H	 -1.224717770	 0.435735085	 2.135518899
H	 -1.214066031	 1.393724437	 0.653090647
C	 0.590847472	 -1.466818137	 1.347977909
H	 1.602913797	 -1.822949997	 1.150102854
H	 0.438968582	 -1.466745983	 2.428286685
H	 -0.109919056	 -2.178684250	 0.909313901
C	 1.378269048	 0.898435362	 1.399149440
H	 2.404393972	 0.585440740	 1.200733652
H	 1.243780924	 0.945974298	 2.480709914
H	 1.248373180	 1.905022619	 0.998950707
C	 0.601960941	 -0.111034194	 -0.743096590
H	 0.459211824	 0.877039098	 -1.182898192
H	 1.613693987	 -0.443459451	 -0.979672098
H	 -0.099530783	 -0.797549823	 -1.219220690
