34
0  1  0  1  0  1  17  17 -1.14617 -0.98845 -0.94985 -1.10757 -1.03302 -1.07707  1.94467  1.94439  1.94216 -1.14947 -0.92031  3.47555 -0.36204 -3.34267
C	 -4.862454617	 0.000008506	 2.519515011
C	 -4.423483202	 -1.439635501	 2.264295685
H	 -3.479576944	 -1.469074641	 1.718096869
H	 -4.285645626	 -1.976132733	 3.204201366
H	 -5.170124794	 -1.974815486	 1.675766215
C	 -3.798977300	 0.718261021	 3.346241752
H	 -4.090602253	 1.751303137	 3.541269285
H	 -3.652144848	 0.221351245	 4.306338444
H	 -2.841334006	 0.731483776	 2.823848743
C	 -6.184595939	 0.000165402	 3.282236498
H	 -6.519458756	 1.019653609	 3.478553730
H	 -6.080517158	 -0.511863035	 4.239862782
H	 -6.962890297	 -0.507156108	 2.710457651
C	 -5.044958059	 0.721202072	 1.186481538
H	 -5.801120511	 0.224760541	 0.576523473
H	 -5.361323405	 1.753453721	 1.343418099
H	 -4.112589781	 0.737018092	 0.620266751
C	 -0.000574166	 0.000000848	 0.000024676
C	 -0.508987010	 1.439391319	 0.000000000
H	 -0.158444564	 1.975200306	 -0.883346579
H	 -1.599532238	 1.468355111	 0.000799688
H	 -0.157078595	 1.975592650	 0.882552572
C	 -0.508189468	 -0.719986231	 -1.246733818
H	 -0.157112496	 -1.752706868	 -1.268998870
H	 -1.598723859	 -0.734302199	 -1.272502943
H	 -0.156305024	 -0.223623156	 -2.152302279
C	 -0.508291991	 -0.719992989	 1.246672561
H	 -0.155802380	 -1.752216333	 1.269756324
H	 -1.598821849	 -0.735831429	 1.271448297
H	 -0.157931504	 -0.222674365	 2.152305810
C	 1.525815183	 0.000587478	 0.000047952
H	 1.913991384	 0.509868871	 0.883248546
H	 1.914495599	 -1.018728645	 -0.000626845
H	 1.913975859	 0.511061005	 -0.882469228
