34
0  1  0  1  0  1  17  17 -1.02607 -0.96543 -0.94493 -1.00557 -0.98799 -0.99844  0.38220  0.38135  0.38067 -1.05420 -0.16629  0.66574 -0.05982 -1.49383
C	 -5.421957724	 2.784751596	 0.000011923
C	 -5.702037956	 1.284098284	 -0.001528790
H	 -4.772316807	 0.713330138	 -0.002597711
H	 -6.273899488	 0.994769051	 0.881372195
H	 -6.274768406	 0.996791747	 -0.884531058
C	 -4.623206658	 3.152959020	 1.247716940
H	 -4.409853714	 4.222633927	 1.270803262
H	 -5.177271270	 2.899066386	 2.152601292
H	 -3.672160002	 2.619140299	 1.274132971
C	 -6.743753359	 3.548071830	 -0.000522555
H	 -6.570164223	 4.625053677	 0.002061747
H	 -7.336372837	 3.298981333	 0.880845525
H	 -7.333547379	 3.302785146	 -0.884844741
C	 -4.621018097	 3.155091486	 -1.245680650
H	 -5.172241111	 2.900098939	 -2.152001056
H	 -4.410121806	 4.225271991	 -1.267952275
H	 -3.668655683	 2.623507557	 -1.269852901
C	 -0.000574166	 0.000000848	 0.000024676
C	 -0.508987010	 1.439391319	 0.000000000
H	 -0.158444564	 1.975200306	 -0.883346579
H	 -1.599532238	 1.468355111	 0.000799688
H	 -0.157078595	 1.975592650	 0.882552572
C	 -0.508189468	 -0.719986231	 -1.246733818
H	 -0.157112496	 -1.752706868	 -1.268998870
H	 -1.598723859	 -0.734302199	 -1.272502943
H	 -0.156305024	 -0.223623156	 -2.152302279
C	 -0.508291991	 -0.719992989	 1.246672561
H	 -0.155802380	 -1.752216333	 1.269756324
H	 -1.598821849	 -0.735831429	 1.271448297
H	 -0.157931504	 -0.222674365	 2.152305810
C	 1.525815183	 0.000587478	 0.000047952
H	 1.913991384	 0.509868871	 0.883248546
H	 1.914495599	 -1.018728645	 -0.000626845
H	 1.913975859	 0.511061005	 -0.882469228
