34
0  1  0  1  0  1  17  17 -0.88878 -0.85178 -0.84092 -0.87791 -0.87072 -0.87499  0.16229  0.16209  0.16183 -0.92503 -0.04783  0.25308 -0.02342 -1.10685
C	 -5.526499674	 -2.917356637	 0.000011922
C	 -4.366935899	 -3.910239889	 -0.001528791
H	 -3.407775610	 -3.390461829	 -0.002597712
H	 -4.402300199	 -4.550151120	 0.881372194
H	 -4.404486364	 -4.549892277	 -0.884531059
C	 -5.446001123	 -2.041514211	 1.247716939
H	 -6.265690295	 -1.321907688	 1.270803261
H	 -5.503155959	 -2.648294557	 2.152601291
H	 -4.508177222	 -1.484793007	 1.274132970
C	 -6.848452205	 -3.680405119	 -0.000522556
H	 -7.694351276	 -2.991581594	 0.002061746
H	 -6.929043246	 -4.318173890	 0.880845524
H	 -6.930924715	 -4.313825065	 -0.884844742
C	 -5.446753613	 -2.038552628	 -1.245680651
H	 -5.501535096	 -2.643422035	 -2.152001057
H	 -6.268108971	 -1.320820830	 -1.267952276
H	 -4.510207219	 -1.479574549	 -1.269852902
C	 -0.000574166	 0.000000848	 0.000024676
C	 -0.508987010	 1.439391319	 0.000000000
H	 -0.158444564	 1.975200306	 -0.883346579
H	 -1.599532238	 1.468355111	 0.000799688
H	 -0.157078595	 1.975592650	 0.882552572
C	 -0.508189468	 -0.719986231	 -1.246733818
H	 -0.157112496	 -1.752706868	 -1.268998870
H	 -1.598723859	 -0.734302199	 -1.272502943
H	 -0.156305024	 -0.223623156	 -2.152302279
C	 -0.508291991	 -0.719992989	 1.246672561
H	 -0.155802380	 -1.752216333	 1.269756324
H	 -1.598821849	 -0.735831429	 1.271448297
H	 -0.157931504	 -0.222674365	 2.152305810
C	 1.525815183	 0.000587478	 0.000047952
H	 1.913991384	 0.509868871	 0.883248546
H	 1.914495599	 -1.018728645	 -0.000626845
H	 1.913975859	 0.511061005	 -0.882469228
