34
0  1  0  1  0  1  17  17 -1.30037 -1.20535 -1.16049 -1.25552 -1.22138 -1.24148  0.87725  0.87968  0.87883 -1.32665 -0.35169  1.51196 -0.15688 -2.33004
C	 0.403996599	 -0.000263759	 -0.000011924
C	 0.684076832	 -1.500917071	 0.001528789
H	 -0.245644316	 -2.071685217	 0.002597710
H	 1.255938364	 -1.790246304	 -0.881372196
H	 1.256807282	 -1.788223608	 0.884531057
C	 -0.394754465	 0.367943665	 -1.247716941
H	 -0.608107411	 1.437618572	 -1.270803263
H	 0.159310146	 0.114051031	 -2.152601293
H	 -1.345801123	 -0.165875057	 -1.274132972
C	 1.725792235	 0.763056475	 0.000522554
H	 1.552203098	 1.840038322	 -0.002061748
H	 2.318411713	 0.513965978	 -0.880845526
H	 2.315586254	 0.517769790	 0.884844740
C	 -0.396943028	 0.370076131	 1.245680649
H	 0.154279987	 0.115083584	 2.152001055
H	 -0.607839318	 1.440256636	 1.267952274
H	 -1.349305441	 -0.161507798	 1.269852900
C	 -5.304216998	 0.000000848	 -0.000024676
C	 -4.795804154	 1.439391319	 0.000000000
H	 -5.146346601	 1.975200306	 0.883346579
H	 -3.705258926	 1.468355111	 -0.000799688
H	 -5.147712569	 1.975592650	 -0.882552572
C	 -4.796601697	 -0.719986231	 1.246733818
H	 -5.147678668	 -1.752706868	 1.268998870
H	 -3.706067305	 -0.734302199	 1.272502943
H	 -5.148486141	 -0.223623156	 2.152302279
C	 -4.796499174	 -0.719992989	 -1.246672561
H	 -5.148988785	 -1.752216333	 -1.269756324
H	 -3.705969316	 -0.735831429	 -1.271448297
H	 -5.146859661	 -0.222674365	 -2.152305810
C	 -6.830606347	 0.000587478	 -0.000047952
H	 -7.218782548	 0.509868871	 -0.883248546
H	 -7.219286763	 -1.018728645	 0.000626845
H	 -7.218767023	 0.511061005	 0.882469228
