34
0  1  0  1  0  1  17  17 97.77348 99.84444 97.51345 95.44249 97.26385 96.17018 126.13925 126.13023 126.03377 91.38165 -34.40812 199.78102 -38.51720 -35.47405
C	 -1.308781743	 -0.000263722	 -0.000011929
C	 -1.028701510	 -1.500917034	 0.001528784
H	 -1.958422658	 -2.071685180	 0.002597705
H	 -0.456839978	 -1.790246267	 -0.881372201
H	 -0.455971060	 -1.788223571	 0.884531052
C	 -2.107532807	 0.367943702	 -1.247716946
H	 -2.320885753	 1.437618609	 -1.270803268
H	 -1.553468196	 0.114051068	 -2.152601298
H	 -3.058579465	 -0.165875020	 -1.274132977
C	 0.013013893	 0.763056512	 0.000522549
H	 -0.160575244	 1.840038359	 -0.002061753
H	 0.605633371	 0.513966015	 -0.880845531
H	 0.602807912	 0.517769827	 0.884844735
C	 -2.109721370	 0.370076168	 1.245680644
H	 -1.558498355	 0.115083621	 2.152001050
H	 -2.320617660	 1.440256673	 1.267952269
H	 -3.062083783	 -0.161507761	 1.269852895
C	 -5.304216998	 0.000000848	 -0.000024676
C	 -4.795804154	 1.439391319	 0.000000000
H	 -5.146346601	 1.975200306	 0.883346579
H	 -3.705258926	 1.468355111	 -0.000799688
H	 -5.147712569	 1.975592650	 -0.882552572
C	 -4.796601697	 -0.719986231	 1.246733818
H	 -5.147678668	 -1.752706868	 1.268998870
H	 -3.706067305	 -0.734302199	 1.272502943
H	 -5.148486141	 -0.223623156	 2.152302279
C	 -4.796499174	 -0.719992989	 -1.246672561
H	 -5.148988785	 -1.752216333	 -1.269756324
H	 -3.705969316	 -0.735831429	 -1.271448297
H	 -5.146859661	 -0.222674365	 -2.152305810
C	 -6.830606347	 0.000587478	 -0.000047952
H	 -7.218782548	 0.509868871	 -0.883248546
H	 -7.219286763	 -1.018728645	 0.000626845
H	 -7.218767023	 0.511061005	 0.882469228
