34
0  1  0  1  0  1  17  17 -0.23488  0.04486  0.04922 -0.23053 -0.06834 -0.16513  4.40180  4.39489  4.38773 -0.18498 -2.44257  8.12528 -0.77856 -5.08913
C	 -0.075448312	 0.000278480	 -0.000011926
C	 -1.235012086	 -0.992604773	 0.001528787
H	 -2.194172374	 -0.472826713	 0.002597708
H	 -1.199647786	 -1.632516004	 -0.881372198
H	 -1.197461621	 -1.632257161	 0.884531055
C	 -0.155946861	 0.876120905	 -1.247716943
H	 0.663742309	 1.595727429	 -1.270803265
H	 -0.098792026	 0.269340559	 -2.152601295
H	 -1.093770764	 1.432842109	 -1.274132974
C	 1.246504220	 -0.762770003	 0.000522552
H	 2.092403290	 -0.073946477	 -0.002061750
H	 1.327095261	 -1.400538774	 -0.880845528
H	 1.328976729	 -1.396189949	 0.884844738
C	 -0.155194373	 0.879082489	 1.245680647
H	 -0.100412889	 0.274213081	 2.152001053
H	 0.666160986	 1.596814286	 1.267952272
H	 -1.091740766	 1.438060567	 1.269852898
C	 -5.304216998	 0.000000848	 -0.000024676
C	 -4.795804154	 1.439391319	 0.000000000
H	 -5.146346601	 1.975200306	 0.883346579
H	 -3.705258926	 1.468355111	 -0.000799688
H	 -5.147712569	 1.975592650	 -0.882552572
C	 -4.796601697	 -0.719986231	 1.246733818
H	 -5.147678668	 -1.752706868	 1.268998870
H	 -3.706067305	 -0.734302199	 1.272502943
H	 -5.148486141	 -0.223623156	 2.152302279
C	 -4.796499174	 -0.719992989	 -1.246672561
H	 -5.148988785	 -1.752216333	 -1.269756324
H	 -3.705969316	 -0.735831429	 -1.271448297
H	 -5.146859661	 -0.222674365	 -2.152305810
C	 -6.830606347	 0.000587478	 -0.000047952
H	 -7.218782548	 0.509868871	 -0.883248546
H	 -7.219286763	 -1.018728645	 0.000626845
H	 -7.218767023	 0.511061005	 0.882469228
