34
0  1  0  1  0  1  17  17 52.91998 54.89564 53.22881 51.25315 52.92658 51.92052 75.75851 75.74790 75.65638 49.67664 -46.01195 134.94084 -11.65153 -27.60073
C	 -1.237627806	 0.000278455	 -0.000011929
C	 -2.397191580	 -0.992604798	 0.001528784
H	 -3.356351868	 -0.472826738	 0.002597705
H	 -2.361827280	 -1.632516029	 -0.881372201
H	 -2.359641115	 -1.632257186	 0.884531052
C	 -1.318126355	 0.876120880	 -1.247716946
H	 -0.498437185	 1.595727404	 -1.270803268
H	 -1.260971520	 0.269340534	 -2.152601298
H	 -2.255950258	 1.432842084	 -1.274132977
C	 0.084324726	 -0.762770028	 0.000522549
H	 0.930223796	 -0.073946502	 -0.002061753
H	 0.164915767	 -1.400538799	 -0.880845531
H	 0.166797235	 -1.396189974	 0.884844735
C	 -1.317373867	 0.879082464	 1.245680644
H	 -1.262592383	 0.274213056	 2.152001050
H	 -0.496018508	 1.596814261	 1.267952269
H	 -2.253920260	 1.438060542	 1.269852895
C	 -5.304216998	 0.000000848	 -0.000024676
C	 -4.795804154	 1.439391319	 0.000000000
H	 -5.146346601	 1.975200306	 0.883346579
H	 -3.705258926	 1.468355111	 -0.000799688
H	 -5.147712569	 1.975592650	 -0.882552572
C	 -4.796601697	 -0.719986231	 1.246733818
H	 -5.147678668	 -1.752706868	 1.268998870
H	 -3.706067305	 -0.734302199	 1.272502943
H	 -5.148486141	 -0.223623156	 2.152302279
C	 -4.796499174	 -0.719992989	 -1.246672561
H	 -5.148988785	 -1.752216333	 -1.269756324
H	 -3.705969316	 -0.735831429	 -1.271448297
H	 -5.146859661	 -0.222674365	 -2.152305810
C	 -6.830606347	 0.000587478	 -0.000047952
H	 -7.218782548	 0.509868871	 -0.883248546
H	 -7.219286763	 -1.018728645	 0.000626845
H	 -7.218767023	 0.511061005	 0.882469228
