34
0  1  0  1  0  1  17  17 -0.46698 -0.05860 -0.11208 -0.52046 -0.27928 -0.42233  6.15263  6.14650  6.13792 -0.43069 -3.36800 11.35644 -1.10212 -7.31701
C	 -0.305396654	 0.056451474	 5.488550275
C	 1.117415799	 -0.412514526	 5.195150734
H	 1.301855001	 -0.451843677	 4.120630268
H	 1.848849948	 0.265158302	 5.637886309
H	 1.289679466	 -1.409520568	 5.603271306
C	 -0.511793464	 1.453013000	 4.907719800
H	 -1.523756559	 1.809998447	 5.104567326
H	 0.189125134	 2.164084473	 5.347441568
H	 -0.358684248	 1.453209615	 3.827577445
C	 -0.525691145	 0.096627688	 6.998403903
H	 -1.536907300	 0.430904674	 7.234477091
H	 0.176821310	 0.781576720	 7.475242123
H	 -0.385128052	 -0.891892651	 7.437855641
C	 -1.301859372	 -0.911326186	 4.855403879
H	 -1.172933363	 -1.918301567	 5.254982851
H	 -2.327748469	 -0.597553330	 5.053791732
H	 -1.167155006	 -0.958300580	 3.773827217
C	 0.382522206	 -0.070606972	 0.766895817
C	 -1.040639472	 0.396811255	 1.060935933
H	 -1.771574596	 -0.281500248	 0.618330233
H	 -1.224717770	 0.435735085	 2.135518899
H	 -1.214066031	 1.393724437	 0.653090647
C	 0.590847472	 -1.466818137	 1.347977909
H	 1.602913797	 -1.822949997	 1.150102854
H	 0.438968582	 -1.466745983	 2.428286685
H	 -0.109919056	 -2.178684250	 0.909313901
C	 1.378269048	 0.898435362	 1.399149440
H	 2.404393972	 0.585440740	 1.200733652
H	 1.243780924	 0.945974298	 2.480709914
H	 1.248373180	 1.905022619	 0.998950707
C	 0.601960941	 -0.111034194	 -0.743096590
H	 0.459211824	 0.877039098	 -1.182898192
H	 1.613693987	 -0.443459451	 -0.979672098
H	 -0.099530783	 -0.797549823	 -1.219220690
