32
0  1  0  1  0  1  17  15 -1.55381 -1.47052 -1.47662 -1.55991 -1.53192 -1.54836  0.57246  0.57397  0.57334 -1.58801 -0.29368  1.05154 -0.10041 -2.24546
C	 0.674404416	 0.000399585	 -0.000005297
C	 1.851146575	 -0.971588245	 0.009790670
H	 2.480771984	 -0.827596830	 -0.869329838
H	 2.469118283	 -0.824023808	 0.896554743
H	 1.501051778	 -2.004777820	 0.009551485
C	 1.198948415	 1.434055981	 0.000000037
H	 0.375991291	 2.150214573	 -0.006232714
H	 1.805989547	 1.625460005	 0.886087782
H	 1.816213291	 1.621866031	 -0.879778712
C	 -0.181691538	 -0.228257473	 1.243400305
H	 -1.027446514	 0.460142823	 1.268491274
H	 0.404721889	 -0.074164987	 2.150496594
H	 -0.574252804	 -1.246127893	 1.263594309
C	 -0.165575994	 -0.234418593	 -1.253187501
H	 -0.559218418	 -1.251870835	 -1.272635876
H	 -1.010031697	 0.454828874	 -1.293306089
H	 0.432708650	 -0.086199290	 -2.153469020
C	 -4.951362831	 -0.379231791	 -1.187160330
H	 -6.038965993	 -0.388236497	 -1.280816633
H	 -4.535830992	 -0.702306475	 -2.140667231
C	 -4.470033715	 1.020874184	 -0.772429711
H	 -5.102166504	 1.806594769	 -1.181704294
H	 -3.463374625	 1.195245764	 -1.151567230
C	 -4.464914492	 1.018314681	 0.777475087
H	 -5.125775548	 1.778010289	 1.190444436
H	 -3.464779879	 1.232889534	 1.152622853
C	 -4.897758115	 -0.399434939	 1.194265155
H	 -5.977624684	 -0.429315351	 1.349748759
H	 -4.424284799	 -0.729121358	 2.117999589
C	 -4.544182620	 -1.267299720	 -0.012776283
H	 -5.045271879	 -2.234309433	 -0.008823829
H	 -3.467870405	 -1.448688956	 -0.039775980
