32
0  1  0  1  0  1  17  15 -0.65310 -0.35274 -0.42695 -0.72731 -0.54360 -0.65211  4.82660  4.82347  4.81801 -0.53602 -2.58205  8.98277 -1.02268 -5.91407
C	 -4.336200772	 2.098646705	 0.000005409
C	 -5.766338004	 2.631741393	 -0.009790558
H	 -5.956450486	 3.249008700	 0.869329950
H	 -5.947529306	 3.240702809	 -0.896554631
H	 -6.486059024	 1.811955617	 -0.009551373
C	 -3.356889911	 3.269743331	 0.000000075
H	 -2.325199816	 2.915120852	 0.006232826
H	 -3.494649730	 3.891158384	 -0.886087670
H	 -3.502874075	 3.898215419	 0.879778824
C	 -4.106175616	 1.242917331	 -1.243400193
H	 -3.087125983	 0.854672185	 -1.268491162
H	 -4.265934322	 1.827812499	 -2.150496482
H	 -4.791396624	 0.394014093	 -1.263594197
C	 -4.119569073	 1.253793242	 1.253187613
H	 -4.803887350	 0.404162781	 1.272635988
H	 -3.100435406	 0.867096884	 1.293306201
H	 -4.290349714	 1.846032593	 2.153469132
C	 0.285864218	 -0.379231791	 1.187160330
H	 1.373467380	 -0.388236497	 1.280816633
H	 -0.129667621	 -0.702306475	 2.140667231
C	 -0.195464898	 1.020874184	 0.772429711
H	 0.436667890	 1.806594769	 1.181704294
H	 -1.202123988	 1.195245764	 1.151567230
C	 -0.200584121	 1.018314681	 -0.777475087
H	 0.460276934	 1.778010289	 -1.190444436
H	 -1.200718734	 1.232889534	 -1.152622853
C	 0.232259502	 -0.399434939	 -1.194265155
H	 1.312126070	 -0.429315351	 -1.349748759
H	 -0.241213814	 -0.729121358	 -2.117999589
C	 -0.121315993	 -1.267299720	 0.012776283
H	 0.379773266	 -2.234309433	 0.008823829
H	 -1.197628208	 -1.448688956	 0.039775980
