32
0  1  0  1  0  1  17  15 -1.48963 -1.30582 -1.31917 -1.50298 -1.40813 -1.46385  2.26718  2.26831  2.26620 -1.45107 -1.18553  4.21757 -0.46683 -4.01628
C	 -4.577152961	 2.215284546	 0.000005371
C	 -6.007290193	 2.748379234	 -0.009790596
H	 -6.197402675	 3.365646541	 0.869329912
H	 -6.188481495	 3.357340650	 -0.896554669
H	 -6.727011213	 1.928593458	 -0.009551411
C	 -3.597842100	 3.386381172	 0.000000037
H	 -2.566152005	 3.031758693	 0.006232788
H	 -3.735601919	 4.007796225	 -0.886087708
H	 -3.743826264	 4.014853260	 0.879778786
C	 -4.347127805	 1.359555172	 -1.243400231
H	 -3.328078172	 0.971310026	 -1.268491200
H	 -4.506886511	 1.944450340	 -2.150496520
H	 -5.032348813	 0.510651934	 -1.263594235
C	 -4.360521262	 1.370431083	 1.253187575
H	 -5.044839539	 0.520800622	 1.272635950
H	 -3.341387595	 0.983734725	 1.293306163
H	 -4.531301903	 1.962670434	 2.153469094
C	 0.285864218	 -0.379231791	 1.187160330
H	 1.373467380	 -0.388236497	 1.280816633
H	 -0.129667621	 -0.702306475	 2.140667231
C	 -0.195464898	 1.020874184	 0.772429711
H	 0.436667890	 1.806594769	 1.181704294
H	 -1.202123988	 1.195245764	 1.151567230
C	 -0.200584121	 1.018314681	 -0.777475087
H	 0.460276934	 1.778010289	 -1.190444436
H	 -1.200718734	 1.232889534	 -1.152622853
C	 0.232259502	 -0.399434939	 -1.194265155
H	 1.312126070	 -0.429315351	 -1.349748759
H	 -0.241213814	 -0.729121358	 -2.117999589
C	 -0.121315993	 -1.267299720	 0.012776283
H	 0.379773266	 -2.234309433	 0.008823829
H	 -1.197628208	 -1.448688956	 0.039775980
