32
0  1  0  1  0  1  17  15 -0.37957 -0.02466 -0.12795 -0.48287 -0.26392 -0.39372  5.84171  5.83677  5.82913 -0.21228 -3.24922 10.96837 -1.23355 -6.69789
C	 -4.175794814	 -0.000247753	 -2.098856680
C	 -5.474336526	 -0.253642826	 -2.859881495
H	 -6.323765725	 0.185870102	 -2.335178748
H	 -5.430535993	 0.183137579	 -3.858540198
H	 -5.659269229	 -1.323458644	 -2.966376254
C	 -3.948408715	 1.503607106	 -1.967581413
H	 -3.024201481	 1.712340078	 -1.426793157
H	 -3.877765318	 1.972888419	 -2.949961426
H	 -4.769922610	 1.974887818	 -1.426001687
C	 -3.011031457	 -0.626318551	 -2.862141360
H	 -2.066083668	 -0.453023894	 -2.345548055
H	 -2.930569379	 -0.199663830	 -3.863111131
H	 -3.147264326	 -1.704100825	 -2.964113471
C	 -4.274079861	 -0.623596465	 -0.708551412
H	 -4.429141975	 -1.701557166	 -0.775619517
H	 -3.362344469	 -0.448918501	 -0.135835784
H	 -5.108753263	 -0.196092462	 -0.150894771
C	 0.285864218	 -0.379231791	 1.187160330
H	 1.373467380	 -0.388236497	 1.280816633
H	 -0.129667621	 -0.702306475	 2.140667231
C	 -0.195464898	 1.020874184	 0.772429711
H	 0.436667890	 1.806594769	 1.181704294
H	 -1.202123988	 1.195245764	 1.151567230
C	 -0.200584121	 1.018314681	 -0.777475087
H	 0.460276934	 1.778010289	 -1.190444436
H	 -1.200718734	 1.232889534	 -1.152622853
C	 0.232259502	 -0.399434939	 -1.194265155
H	 1.312126070	 -0.429315351	 -1.349748759
H	 -0.241213814	 -0.729121358	 -2.117999589
C	 -0.121315993	 -1.267299720	 0.012776283
H	 0.379773266	 -2.234309433	 0.008823829
H	 -1.197628208	 -1.448688956	 0.039775980
