32
0  1  0  1  0  1  17  15 12.10049 12.96011 12.34644 11.48682 12.15015 11.75375 25.79483 25.78860 25.75800 12.26672 -12.68297 46.29039 -6.13638 -15.20431
C	 -0.597283300	 0.000397499	 -0.000005484
C	 0.579458859	 -0.971590331	 0.009790483
H	 1.209084268	 -0.827598916	 -0.869330025
H	 1.197430567	 -0.824025894	 0.896554556
H	 0.229364062	 -2.004779906	 0.009551298
C	 -0.072739301	 1.434053895	 -0.000000150
H	 -0.895696425	 2.150212487	 -0.006232901
H	 0.534301831	 1.625457919	 0.886087595
H	 0.544525575	 1.621863945	 -0.879778899
C	 -1.453379254	 -0.228259559	 1.243400118
H	 -2.299134230	 0.460140737	 1.268491087
H	 -0.866965827	 -0.074167073	 2.150496407
H	 -1.845940520	 -1.246129979	 1.263594122
C	 -1.437263710	 -0.234420679	 -1.253187688
H	 -1.830906134	 -1.251872921	 -1.272636063
H	 -2.281719413	 0.454826788	 -1.293306276
H	 -0.838979066	 -0.086201376	 -2.153469207
C	 -4.951362831	 -0.379231791	 -1.187160330
H	 -6.038965993	 -0.388236497	 -1.280816633
H	 -4.535830992	 -0.702306475	 -2.140667231
C	 -4.470033715	 1.020874184	 -0.772429711
H	 -5.102166504	 1.806594769	 -1.181704294
H	 -3.463374625	 1.195245764	 -1.151567230
C	 -4.464914492	 1.018314681	 0.777475087
H	 -5.125775548	 1.778010289	 1.190444436
H	 -3.464779879	 1.232889534	 1.152622853
C	 -4.897758115	 -0.399434939	 1.194265155
H	 -5.977624684	 -0.429315351	 1.349748759
H	 -4.424284799	 -0.729121358	 2.117999589
C	 -4.544182620	 -1.267299720	 -0.012776283
H	 -5.045271879	 -2.234309433	 -0.008823829
H	 -3.467870405	 -1.448688956	 -0.039775980
