32
0  1  0  1  0  1  17  15 -1.11020 -1.04558 -1.05515 -1.11977 -1.09819 -1.11099  0.44958  0.44960  0.44884 -1.13519 -0.20284  0.79053 -0.07473 -1.64816
C	 -5.104406976	 -2.448987187	 0.000005297
C	 -6.281149135	 -3.420975017	 -0.009790670
H	 -6.910774545	 -3.276983602	 0.869329838
H	 -6.899120842	 -3.273410579	 -0.896554743
H	 -5.931054337	 -4.454164592	 -0.009551485
C	 -5.628950974	 -1.015330790	 -0.000000037
H	 -4.805993851	 -0.299172198	 0.006232714
H	 -6.235992106	 -0.823926767	 -0.886087782
H	 -6.246215850	 -0.827520741	 0.879778712
C	 -4.248311022	 -2.677644245	 -1.243400305
H	 -3.402556046	 -1.989243948	 -1.268491274
H	 -4.834724449	 -2.523551759	 -2.150496594
H	 -3.855749756	 -3.695514664	 -1.263594309
C	 -4.264426565	 -2.683805364	 1.253187501
H	 -3.870784141	 -3.701257607	 1.272635876
H	 -3.419970862	 -1.994557897	 1.293306089
H	 -4.862711209	 -2.535586062	 2.153469020
C	 0.285864218	 -0.379231791	 1.187160330
H	 1.373467380	 -0.388236497	 1.280816633
H	 -0.129667621	 -0.702306475	 2.140667231
C	 -0.195464898	 1.020874184	 0.772429711
H	 0.436667890	 1.806594769	 1.181704294
H	 -1.202123988	 1.195245764	 1.151567230
C	 -0.200584121	 1.018314681	 -0.777475087
H	 0.460276934	 1.778010289	 -1.190444436
H	 -1.200718734	 1.232889534	 -1.152622853
C	 0.232259502	 -0.399434939	 -1.194265155
H	 1.312126070	 -0.429315351	 -1.349748759
H	 -0.241213814	 -0.729121358	 -2.117999589
C	 -0.121315993	 -1.267299720	 0.012776283
H	 0.379773266	 -2.234309433	 0.008823829
H	 -1.197628208	 -1.448688956	 0.039775980
