32
0  1  0  1  0  1  17  15 -1.36189 -1.27976 -1.29481 -1.37695 -1.34816 -1.36513  0.49163  0.49053  0.48975 -1.38476 -0.28621  0.93953 -0.08641 -1.95167
C	 0.821335531	 -0.000826544	 -0.000005297
C	 2.251472763	 0.532268144	 0.009790670
H	 2.441585244	 1.149535451	 -0.869329838
H	 2.432664066	 1.141229560	 0.896554743
H	 2.971193784	 -0.287517631	 0.009551485
C	 -0.157975329	 1.170270082	 0.000000037
H	 -1.189665425	 0.815647603	 -0.006232714
H	 -0.020215510	 1.791685136	 0.886087782
H	 -0.011991165	 1.798742171	 -0.879778712
C	 0.591310375	 -0.856555917	 1.243400305
H	 -0.427739258	 -1.244801064	 1.268491274
H	 0.751069081	 -0.271660749	 2.150496594
H	 1.276531383	 -1.705459156	 1.263594309
C	 0.604703833	 -0.845680007	 -1.253187501
H	 1.289022110	 -1.695310467	 -1.272635876
H	 -0.414429834	 -1.232376365	 -1.293306089
H	 0.775484474	 -0.253440655	 -2.153469020
C	 -4.951362831	 -0.379231791	 -1.187160330
H	 -6.038965993	 -0.388236497	 -1.280816633
H	 -4.535830992	 -0.702306475	 -2.140667231
C	 -4.470033715	 1.020874184	 -0.772429711
H	 -5.102166504	 1.806594769	 -1.181704294
H	 -3.463374625	 1.195245764	 -1.151567230
C	 -4.464914492	 1.018314681	 0.777475087
H	 -5.125775548	 1.778010289	 1.190444436
H	 -3.464779879	 1.232889534	 1.152622853
C	 -4.897758115	 -0.399434939	 1.194265155
H	 -5.977624684	 -0.429315351	 1.349748759
H	 -4.424284799	 -0.729121358	 2.117999589
C	 -4.544182620	 -1.267299720	 -0.012776283
H	 -5.045271879	 -2.234309433	 -0.008823829
H	 -3.467870405	 -1.448688956	 -0.039775980
