32
0  1  0  1  0  1  17  15 -1.43591 -1.32214 -1.34644 -1.46021 -1.41054 -1.43984  1.03709  1.03626  1.03487 -1.45040 -0.58375  1.93811 -0.17804 -2.62672
C	 0.640964583	 -0.000246963	 -0.000617663
C	 1.939506295	 -0.253642036	 0.760407152
H	 2.788935494	 0.185870892	 0.235704405
H	 1.895705763	 0.183138369	 1.759065856
H	 2.124438999	 -1.323457854	 0.866901912
C	 0.413578485	 1.503607896	 -0.131892929
H	 -0.510628749	 1.712340868	 -0.672681185
H	 0.342935088	 1.972889209	 0.850487083
H	 1.235092380	 1.974888608	 -0.673472656
C	 -0.523798773	 -0.626317761	 0.762667018
H	 -1.468746562	 -0.453023104	 0.246073713
H	 -0.604260851	 -0.199663040	 1.763636789
H	 -0.387565904	 -1.704100035	 0.864639129
C	 0.739249631	 -0.623595675	 -1.390922930
H	 0.894311745	 -1.701556376	 -1.323854826
H	 -0.172485761	 -0.448917711	 -1.963638559
H	 1.573923032	 -0.196091672	 -1.948579572
C	 -4.951362831	 -0.379231791	 -1.187160330
H	 -6.038965993	 -0.388236497	 -1.280816633
H	 -4.535830992	 -0.702306475	 -2.140667231
C	 -4.470033715	 1.020874184	 -0.772429711
H	 -5.102166504	 1.806594769	 -1.181704294
H	 -3.463374625	 1.195245764	 -1.151567230
C	 -4.464914492	 1.018314681	 0.777475087
H	 -5.125775548	 1.778010289	 1.190444436
H	 -3.464779879	 1.232889534	 1.152622853
C	 -4.897758115	 -0.399434939	 1.194265155
H	 -5.977624684	 -0.429315351	 1.349748759
H	 -4.424284799	 -0.729121358	 2.117999589
C	 -4.544182620	 -1.267299720	 -0.012776283
H	 -5.045271879	 -2.234309433	 -0.008823829
H	 -3.467870405	 -1.448688956	 -0.039775980
