32
0  1  0  1  0  1  17  15 -1.32877 -1.25485 -1.25065 -1.32456 -1.30139 -1.31505  0.47404  0.47445  0.47382 -1.35827 -0.22386  0.85911 -0.09047 -1.90305
C	 -5.059057341	 2.448560228	 0.000005297
C	 -6.489194573	 2.981654916	 -0.009790670
H	 -6.679307055	 3.598922223	 0.869329838
H	 -6.670385875	 3.590616332	 -0.896554743
H	 -7.208915593	 2.161869140	 -0.009551485
C	 -4.079746480	 3.619656854	 -0.000000037
H	 -3.048056385	 3.265034375	 0.006232714
H	 -4.217506299	 4.241071907	 -0.886087782
H	 -4.225730644	 4.248128942	 0.879778712
C	 -4.829032185	 1.592830854	 -1.243400305
H	 -3.809982552	 1.204585708	 -1.268491274
H	 -4.988790891	 2.177726022	 -2.150496594
H	 -5.514253193	 0.743927616	 -1.263594309
C	 -4.842425642	 1.603706765	 1.253187501
H	 -5.526743919	 0.754076304	 1.272635876
H	 -3.823291975	 1.217010407	 1.293306089
H	 -5.013206283	 2.195946116	 2.153469020
C	 0.285864218	 -0.379231791	 1.187160330
H	 1.373467380	 -0.388236497	 1.280816633
H	 -0.129667621	 -0.702306475	 2.140667231
C	 -0.195464898	 1.020874184	 0.772429711
H	 0.436667890	 1.806594769	 1.181704294
H	 -1.202123988	 1.195245764	 1.151567230
C	 -0.200584121	 1.018314681	 -0.777475087
H	 0.460276934	 1.778010289	 -1.190444436
H	 -1.200718734	 1.232889534	 -1.152622853
C	 0.232259502	 -0.399434939	 -1.194265155
H	 1.312126070	 -0.429315351	 -1.349748759
H	 -0.241213814	 -0.729121358	 -2.117999589
C	 -0.121315993	 -1.267299720	 0.012776283
H	 0.379773266	 -2.234309433	 0.008823829
H	 -1.197628208	 -1.448688956	 0.039775980
