32
0  1  0  1  0  1  17  15 -0.62896 -0.05859 -0.39565 -0.96602 -0.61013 -0.82150  8.46438  8.45027  8.43695 -0.45003 -5.35184 16.26199 -1.47712 -9.88306
C	 0.039348575	 0.073764062	 5.146015214
C	 -0.056995622	 -0.078321914	 6.661655693
H	 0.935550746	 -0.093788118	 7.114012914
H	 -0.615920390	 0.749562587	 7.100090605
H	 -0.564160320	 -1.006987993	 6.927005283
C	 0.753401818	 1.380669176	 4.810390334
H	 0.834921364	 1.514168308	 3.730708460
H	 0.209929431	 2.235357611	 5.215891718
H	 1.761006361	 1.391319591	 5.228623335
C	 -1.365663238	 0.093588710	 4.548695691
H	 -1.328731650	 0.210778645	 3.464846725
H	 -1.947962770	 0.921012268	 4.957041611
H	 -1.895566298	 -0.834198134	 4.770024984
C	 0.827248389	 -1.099720842	 4.568677041
H	 0.332028073	 -2.046711579	 4.788920189
H	 0.922091562	 -1.012538078	 3.485542264
H	 1.831966473	 -1.137125480	 4.992425497
C	 0.799914079	 -1.022051643	 0.687736956
H	 0.853555876	 -1.122051012	 -0.398014355
H	 1.491402098	 -1.744169358	 1.119720403
C	 1.116887003	 0.424952788	 1.099662054
H	 1.838142304	 0.890145042	 0.430452563
H	 1.555569586	 0.439824638	 2.097083555
C	 -0.244559155	 1.165689590	 1.102977140
H	 -0.258077602	 2.000863135	 0.405323332
H	 -0.448804499	 1.576995819	 2.090984469
C	 -1.298714178	 0.103811907	 0.739308994
H	 -1.473560779	 0.105243377	 -0.338005451
H	 -2.256734278	 0.278041178	 1.227158427
C	 -0.646879933	 -1.220068359	 1.136306600
H	 -1.124439184	 -2.087627024	 0.682993267
H	 -0.686018645	 -1.345283315	 2.220220065
