32
0  1  0  1  0  1  17  15 -1.05391 -1.00719 -1.00729 -1.05401 -1.04279 -1.04939  0.21593  0.21553  0.21524 -1.08826 -0.09100  0.37584 -0.03906 -1.33405
C	 -5.300009530	 2.565198069	 0.000005259
C	 -6.730146762	 3.098292757	 -0.009790708
H	 -6.920259244	 3.715560064	 0.869329800
H	 -6.911338064	 3.707254173	 -0.896554781
H	 -7.449867782	 2.278506981	 -0.009551523
C	 -4.320698669	 3.736294695	 -0.000000075
H	 -3.289008574	 3.381672216	 0.006232676
H	 -4.458458488	 4.357709748	 -0.886087820
H	 -4.466682833	 4.364766783	 0.879778674
C	 -5.069984374	 1.709468695	 -1.243400343
H	 -4.050934741	 1.321223549	 -1.268491312
H	 -5.229743080	 2.294363863	 -2.150496632
H	 -5.755205382	 0.860565457	 -1.263594347
C	 -5.083377831	 1.720344606	 1.253187463
H	 -5.767696108	 0.870714145	 1.272635838
H	 -4.064244164	 1.333648248	 1.293306051
H	 -5.254158472	 2.312583957	 2.153468982
C	 0.285864218	 -0.379231791	 1.187160330
H	 1.373467380	 -0.388236497	 1.280816633
H	 -0.129667621	 -0.702306475	 2.140667231
C	 -0.195464898	 1.020874184	 0.772429711
H	 0.436667890	 1.806594769	 1.181704294
H	 -1.202123988	 1.195245764	 1.151567230
C	 -0.200584121	 1.018314681	 -0.777475087
H	 0.460276934	 1.778010289	 -1.190444436
H	 -1.200718734	 1.232889534	 -1.152622853
C	 0.232259502	 -0.399434939	 -1.194265155
H	 1.312126070	 -0.429315351	 -1.349748759
H	 -0.241213814	 -0.729121358	 -2.117999589
C	 -0.121315993	 -1.267299720	 0.012776283
H	 0.379773266	 -2.234309433	 0.008823829
H	 -1.197628208	 -1.448688956	 0.039775980
