32
0  1  0  1  0  1  17  15 -0.88973 -0.84947 -0.85857 -0.89883 -0.88852 -0.89465  0.21285  0.21250  0.21209 -0.91914 -0.07957  0.35335 -0.03344 -1.15948
C	 -5.347530422	 -2.565624235	 0.000005259
C	 -6.524272581	 -3.537612065	 -0.009790708
H	 -7.153897991	 -3.393620650	 0.869329800
H	 -7.142244288	 -3.390047627	 -0.896554781
H	 -6.174177783	 -4.570801640	 -0.009551523
C	 -5.872074420	 -1.131967838	 -0.000000075
H	 -5.049117297	 -0.415809246	 0.006232676
H	 -6.479115552	 -0.940563815	 -0.886087820
H	 -6.489339296	 -0.944157789	 0.879778674
C	 -4.491434468	 -2.794281293	 -1.243400343
H	 -3.645679492	 -2.105880996	 -1.268491312
H	 -5.077847895	 -2.640188807	 -2.150496632
H	 -4.098873202	 -3.812151712	 -1.263594347
C	 -4.507550011	 -2.800442412	 1.253187463
H	 -4.113907587	 -3.817894655	 1.272635838
H	 -3.663094308	 -2.111194945	 1.293306051
H	 -5.105834655	 -2.652223110	 2.153468982
C	 0.285864218	 -0.379231791	 1.187160330
H	 1.373467380	 -0.388236497	 1.280816633
H	 -0.129667621	 -0.702306475	 2.140667231
C	 -0.195464898	 1.020874184	 0.772429711
H	 0.436667890	 1.806594769	 1.181704294
H	 -1.202123988	 1.195245764	 1.151567230
C	 -0.200584121	 1.018314681	 -0.777475087
H	 0.460276934	 1.778010289	 -1.190444436
H	 -1.200718734	 1.232889534	 -1.152622853
C	 0.232259502	 -0.399434939	 -1.194265155
H	 1.312126070	 -0.429315351	 -1.349748759
H	 -0.241213814	 -0.729121358	 -2.117999589
C	 -0.121315993	 -1.267299720	 0.012776283
H	 0.379773266	 -2.234309433	 0.008823829
H	 -1.197628208	 -1.448688956	 0.039775980
