32
0  1  0  1  0  1  17  15 81.78135 84.17190 81.17014 78.77959 80.86922 79.61640 111.52207 111.51267 111.40659 76.38443 -57.89005 199.24057 -28.50032 -36.46577
C	 -3.209392101	 -0.000249332	 1.632316440
C	 -4.517729780	 -0.253644405	 2.376374143
H	 -4.488038471	 0.185868523	 3.374352782
H	 -5.360693320	 0.183136000	 1.839112418
H	 -4.702423298	 -1.323460223	 2.483283183
C	 -2.982011336	 1.503605527	 1.501031935
H	 -2.051571351	 1.712338499	 0.971039121
H	 -3.797455684	 1.972886840	 0.948662953
H	 -2.923746482	 1.974886239	 2.483273701
C	 -3.288034346	 -0.626320130	 0.241959444
H	 -2.368177526	 -0.453025473	 -0.318092694
H	 -4.114668557	 -0.199665409	 -0.328207645
H	 -3.444461219	 -1.704102404	 0.308954514
C	 -2.054494944	 -0.623598044	 2.412586422
H	 -2.190108683	 -1.701558745	 2.513340099
H	 -1.102640964	 -0.448920080	 1.909358225
H	 -1.988886827	 -0.196094041	 3.414263112
C	 0.285864218	 -0.379231791	 1.187160330
H	 1.373467380	 -0.388236497	 1.280816633
H	 -0.129667621	 -0.702306475	 2.140667231
C	 -0.195464898	 1.020874184	 0.772429711
H	 0.436667890	 1.806594769	 1.181704294
H	 -1.202123988	 1.195245764	 1.151567230
C	 -0.200584121	 1.018314681	 -0.777475087
H	 0.460276934	 1.778010289	 -1.190444436
H	 -1.200718734	 1.232889534	 -1.152622853
C	 0.232259502	 -0.399434939	 -1.194265155
H	 1.312126070	 -0.429315351	 -1.349748759
H	 -0.241213814	 -0.729121358	 -2.117999589
C	 -0.121315993	 -1.267299720	 0.012776283
H	 0.379773266	 -2.234309433	 0.008823829
H	 -1.197628208	 -1.448688956	 0.039775980
