32
0  1  0  1  0  1  17  15  9.53089 10.27313  9.72987  8.98763  9.55020  9.21497 20.52194 20.51628 20.49258  9.50384 -11.69369 37.51611 -3.92734 -12.39124
C	 -0.413762832	 -0.000248543	 0.000608192
C	 0.894574847	 -0.253643616	 -0.743449511
H	 0.864883538	 0.185869312	 -1.741428150
H	 1.737538388	 0.183136789	 -0.206187786
H	 1.079268366	 -1.323459434	 -0.850358551
C	 -0.641143596	 1.503606316	 0.131892696
H	 -1.571583581	 1.712339288	 0.661885511
H	 0.174300752	 1.972887629	 0.684261678
H	 -0.699408450	 1.974887028	 -0.850349070
C	 -0.335120586	 -0.626319341	 1.390965188
H	 -1.254977406	 -0.453024684	 1.951017326
H	 0.491513625	 -0.199664620	 1.961132277
H	 -0.178693713	 -1.704101615	 1.323970118
C	 -1.568659988	 -0.623597255	 -0.779661790
H	 -1.433046249	 -1.701557956	 -0.880415468
H	 -2.520513968	 -0.448919291	 -0.276433594
H	 -1.634268106	 -0.196093252	 -1.781338481
C	 -4.951362831	 -0.379231791	 -1.187160330
H	 -6.038965993	 -0.388236497	 -1.280816633
H	 -4.535830992	 -0.702306475	 -2.140667231
C	 -4.470033715	 1.020874184	 -0.772429711
H	 -5.102166504	 1.806594769	 -1.181704294
H	 -3.463374625	 1.195245764	 -1.151567230
C	 -4.464914492	 1.018314681	 0.777475087
H	 -5.125775548	 1.778010289	 1.190444436
H	 -3.464779879	 1.232889534	 1.152622853
C	 -4.897758115	 -0.399434939	 1.194265155
H	 -5.977624684	 -0.429315351	 1.349748759
H	 -4.424284799	 -0.729121358	 2.117999589
C	 -4.544182620	 -1.267299720	 -0.012776283
H	 -5.045271879	 -2.234309433	 -0.008823829
H	 -3.467870405	 -1.448688956	 -0.039775980
