32
0  1  0  1  0  1  17  15 -1.79584 -1.64928 -1.66274 -1.80930 -1.74792 -1.78420  1.25326  1.25337  1.25149 -1.79645 -0.68136  2.35739 -0.24038 -3.23210
C	 -4.585302149	 -0.000246963	 2.332140882
C	 -5.893639828	 -0.253642036	 3.076198585
H	 -5.863948519	 0.185870892	 4.074177224
H	 -6.736603368	 0.183138369	 2.538936860
H	 -6.078333346	 -1.323457854	 3.183107625
C	 -4.357921384	 1.503607896	 2.200856377
H	 -3.427481399	 1.712340868	 1.670863563
H	 -5.173365732	 1.972889209	 1.648487395
H	 -4.299656530	 1.974888608	 3.183098143
C	 -4.663944394	 -0.626317761	 0.941783886
H	 -3.744087574	 -0.453023104	 0.381731748
H	 -5.490578605	 -0.199663040	 0.371616797
H	 -4.820371267	 -1.704100035	 1.008778956
C	 -3.430404992	 -0.623595675	 3.112410864
H	 -3.566018731	 -1.701556376	 3.213164541
H	 -2.478551012	 -0.448917711	 2.609182667
H	 -3.364796875	 -0.196091672	 4.114087554
C	 0.285864218	 -0.379231791	 1.187160330
H	 1.373467380	 -0.388236497	 1.280816633
H	 -0.129667621	 -0.702306475	 2.140667231
C	 -0.195464898	 1.020874184	 0.772429711
H	 0.436667890	 1.806594769	 1.181704294
H	 -1.202123988	 1.195245764	 1.151567230
C	 -0.200584121	 1.018314681	 -0.777475087
H	 0.460276934	 1.778010289	 -1.190444436
H	 -1.200718734	 1.232889534	 -1.152622853
C	 0.232259502	 -0.399434939	 -1.194265155
H	 1.312126070	 -0.429315351	 -1.349748759
H	 -0.241213814	 -0.729121358	 -2.117999589
C	 -0.121315993	 -1.267299720	 0.012776283
H	 0.379773266	 -2.234309433	 0.008823829
H	 -1.197628208	 -1.448688956	 0.039775980
