32
0  1  0  1  0  1  17  15 13.77320 14.70868 14.00255 13.06706 13.79843 13.36064 27.38662 27.37217 27.33669 13.89532 -14.94278 50.55592 -6.46533 -15.25249
C	 -3.711699908	 -0.000248543	 -1.865581716
C	 -5.010241620	 -0.253643616	 -2.626606531
H	 -5.859670819	 0.185869312	 -2.101903784
H	 -4.966441087	 0.183136789	 -3.625265234
H	 -5.195174323	 -1.323459434	 -2.733101290
C	 -3.484313809	 1.503606316	 -1.734306449
H	 -2.560106575	 1.712339288	 -1.193518193
H	 -3.413670412	 1.972887629	 -2.716686462
H	 -4.305827704	 1.974887028	 -1.192726723
C	 -2.546936551	 -0.626319341	 -2.628866396
H	 -1.601988762	 -0.453024684	 -2.112273091
H	 -2.466474473	 -0.199664620	 -3.629836167
H	 -2.683169420	 -1.704101615	 -2.730838507
C	 -3.809984955	 -0.623597255	 -0.475276448
H	 -3.965047069	 -1.701557956	 -0.542344553
H	 -2.898249563	 -0.448919291	 0.097439180
H	 -4.644658357	 -0.196093252	 0.082380193
C	 0.285864218	 -0.379231791	 1.187160330
H	 1.373467380	 -0.388236497	 1.280816633
H	 -0.129667621	 -0.702306475	 2.140667231
C	 -0.195464898	 1.020874184	 0.772429711
H	 0.436667890	 1.806594769	 1.181704294
H	 -1.202123988	 1.195245764	 1.151567230
C	 -0.200584121	 1.018314681	 -0.777475087
H	 0.460276934	 1.778010289	 -1.190444436
H	 -1.200718734	 1.232889534	 -1.152622853
C	 0.232259502	 -0.399434939	 -1.194265155
H	 1.312126070	 -0.429315351	 -1.349748759
H	 -0.241213814	 -0.729121358	 -2.117999589
C	 -0.121315993	 -1.267299720	 0.012776283
H	 0.379773266	 -2.234309433	 0.008823829
H	 -1.197628208	 -1.448688956	 0.039775980
