32
0  1  0  1  0  1  17  15 86.44439 88.84051 85.83577 83.43965 85.53822 84.27875 116.11999 116.10926 115.99966 80.45180 -58.88132 206.47337 -30.42254 -36.71771
C	 -3.247605001	 -0.000249332	 -1.632306752
C	 -4.546146713	 -0.253644405	 -2.393331567
H	 -5.395575912	 0.185868523	 -1.868628820
H	 -4.502346180	 0.183136000	 -3.391990270
H	 -4.731079416	 -1.323460223	 -2.499826326
C	 -3.020218902	 1.503605527	 -1.501031485
H	 -2.096011668	 1.712338499	 -0.960243229
H	 -2.949575505	 1.972886840	 -2.483411498
H	 -3.841732797	 1.974886239	 -0.959451759
C	 -2.082841644	 -0.626320130	 -2.395591432
H	 -1.137893855	 -0.453025473	 -1.878998127
H	 -2.002379566	 -0.199665409	 -3.396561203
H	 -2.219074513	 -1.704102404	 -2.497563543
C	 -3.345890048	 -0.623598044	 -0.242001484
H	 -3.500952162	 -1.701558745	 -0.309069589
H	 -2.434154656	 -0.448920080	 0.330714144
H	 -4.180563450	 -0.196094041	 0.315655157
C	 0.285864218	 -0.379231791	 1.187160330
H	 1.373467380	 -0.388236497	 1.280816633
H	 -0.129667621	 -0.702306475	 2.140667231
C	 -0.195464898	 1.020874184	 0.772429711
H	 0.436667890	 1.806594769	 1.181704294
H	 -1.202123988	 1.195245764	 1.151567230
C	 -0.200584121	 1.018314681	 -0.777475087
H	 0.460276934	 1.778010289	 -1.190444436
H	 -1.200718734	 1.232889534	 -1.152622853
C	 0.232259502	 -0.399434939	 -1.194265155
H	 1.312126070	 -0.429315351	 -1.349748759
H	 -0.241213814	 -0.729121358	 -2.117999589
C	 -0.121315993	 -1.267299720	 0.012776283
H	 0.379773266	 -2.234309433	 0.008823829
H	 -1.197628208	 -1.448688956	 0.039775980
