32
0  1  0  1  0  1  17  15 -1.24782 -1.18887 -1.19832 -1.25727 -1.24169 -1.25094  0.26470  0.26412  0.26356 -1.28602 -0.12512  0.47371 -0.04766 -1.58694
C	 -5.043938832	 -0.000246173	 2.565415696
C	 -6.352276511	 -0.253641246	 3.309473399
H	 -6.322585202	 0.185871682	 4.307452038
H	 -7.195240051	 0.183139159	 2.772211674
H	 -6.536970029	 -1.323457064	 3.416382439
C	 -4.816558067	 1.503608686	 2.434131191
H	 -3.886118082	 1.712341658	 1.904138377
H	 -5.632002415	 1.972889999	 1.881762209
H	 -4.758293213	 1.974889398	 3.416372957
C	 -5.122581077	 -0.626316971	 1.175058700
H	 -4.202724257	 -0.453022314	 0.615006562
H	 -5.949215288	 -0.199662250	 0.604891611
H	 -5.279007950	 -1.704099245	 1.242053770
C	 -3.889041675	 -0.623594885	 3.345685678
H	 -4.024655414	 -1.701555586	 3.446439355
H	 -2.937187695	 -0.448916921	 2.842457481
H	 -3.823433558	 -0.196090882	 4.347362368
C	 0.285864218	 -0.379231791	 1.187160330
H	 1.373467380	 -0.388236497	 1.280816633
H	 -0.129667621	 -0.702306475	 2.140667231
C	 -0.195464898	 1.020874184	 0.772429711
H	 0.436667890	 1.806594769	 1.181704294
H	 -1.202123988	 1.195245764	 1.151567230
C	 -0.200584121	 1.018314681	 -0.777475087
H	 0.460276934	 1.778010289	 -1.190444436
H	 -1.200718734	 1.232889534	 -1.152622853
C	 0.232259502	 -0.399434939	 -1.194265155
H	 1.312126070	 -0.429315351	 -1.349748759
H	 -0.241213814	 -0.729121358	 -2.117999589
C	 -0.121315993	 -1.267299720	 0.012776283
H	 0.379773266	 -2.234309433	 0.008823829
H	 -1.197628208	 -1.448688956	 0.039775980
