32
0  1  0  1  0  1  17  15 -0.54470 -0.28257 -0.38005 -0.64218 -0.48429 -0.57799  4.14853  4.14221  4.13647 -0.46315 -2.32161  7.70470 -0.77678 -5.06947
C	 -4.375036640	 -2.099076043	 0.000005409
C	 -5.551778799	 -3.071063873	 -0.009790558
H	 -6.181404209	 -2.927072458	 0.869329950
H	 -6.169750506	 -2.923499435	 -0.896554631
H	 -5.201684001	 -4.104253448	 -0.009551373
C	 -4.899580638	 -0.665419646	 0.000000075
H	 -4.076623515	 0.050738946	 0.006232826
H	 -5.506621770	 -0.474015623	 -0.886087670
H	 -5.516845514	 -0.477609597	 0.879778824
C	 -3.518940686	 -2.327733101	 -1.243400193
H	 -2.673185710	 -1.639332804	 -1.268491162
H	 -4.105354113	 -2.173640615	 -2.150496482
H	 -3.126379420	 -3.345603520	 -1.263594197
C	 -3.535056229	 -2.333894220	 1.253187613
H	 -3.141413805	 -3.351346463	 1.272635988
H	 -2.690600526	 -1.644646753	 1.293306201
H	 -4.133340873	 -2.185674918	 2.153469132
C	 0.285864218	 -0.379231791	 1.187160330
H	 1.373467380	 -0.388236497	 1.280816633
H	 -0.129667621	 -0.702306475	 2.140667231
C	 -0.195464898	 1.020874184	 0.772429711
H	 0.436667890	 1.806594769	 1.181704294
H	 -1.202123988	 1.195245764	 1.151567230
C	 -0.200584121	 1.018314681	 -0.777475087
H	 0.460276934	 1.778010289	 -1.190444436
H	 -1.200718734	 1.232889534	 -1.152622853
C	 0.232259502	 -0.399434939	 -1.194265155
H	 1.312126070	 -0.429315351	 -1.349748759
H	 -0.241213814	 -0.729121358	 -2.117999589
C	 -0.121315993	 -1.267299720	 0.012776283
H	 0.379773266	 -2.234309433	 0.008823829
H	 -1.197628208	 -1.448688956	 0.039775980
