32
0  1  0  1  0  1  17  15 -0.45133 -0.08334 -0.20163 -0.56961 -0.34318 -0.47735  5.96908  5.96367  5.95594 -0.28769 -3.34366 11.23009 -1.25033 -6.92379
C	 -4.126665466	 -0.000247753	 2.098866068
C	 -5.435003145	 -0.253642826	 2.842923771
H	 -5.405311836	 0.185870102	 3.840902410
H	 -6.277966685	 0.183137579	 2.305662046
H	 -5.619696663	 -1.323458644	 2.949832811
C	 -3.899284701	 1.503607106	 1.967581563
H	 -2.968844716	 1.712340078	 1.437588749
H	 -4.714729049	 1.972888419	 1.415212581
H	 -3.841019847	 1.974887818	 2.949823329
C	 -4.205307711	 -0.626318551	 0.708509072
H	 -3.285450891	 -0.453023894	 0.148456934
H	 -5.031941922	 -0.199663830	 0.138341983
H	 -4.361734584	 -1.704100825	 0.775504142
C	 -2.971768309	 -0.623596465	 2.879136050
H	 -3.107382048	 -1.701557166	 2.979889727
H	 -2.019914329	 -0.448918501	 2.375907853
H	 -2.906160192	 -0.196092462	 3.880812740
C	 0.285864218	 -0.379231791	 1.187160330
H	 1.373467380	 -0.388236497	 1.280816633
H	 -0.129667621	 -0.702306475	 2.140667231
C	 -0.195464898	 1.020874184	 0.772429711
H	 0.436667890	 1.806594769	 1.181704294
H	 -1.202123988	 1.195245764	 1.151567230
C	 -0.200584121	 1.018314681	 -0.777475087
H	 0.460276934	 1.778010289	 -1.190444436
H	 -1.200718734	 1.232889534	 -1.152622853
C	 0.232259502	 -0.399434939	 -1.194265155
H	 1.312126070	 -0.429315351	 -1.349748759
H	 -0.241213814	 -0.729121358	 -2.117999589
C	 -0.121315993	 -1.267299720	 0.012776283
H	 0.379773266	 -2.234309433	 0.008823829
H	 -1.197628208	 -1.448688956	 0.039775980
