32
0  1  0  1  0  1  17  15 -1.76441 -1.63373 -1.64009 -1.77077 -1.71461 -1.74752  1.26882  1.27162  1.27058 -1.77678 -0.65252  2.32976 -0.23610 -3.21792
C	 0.420066873	 0.000399168	 -0.000005334
C	 1.596809032	 -0.971588662	 0.009790633
H	 2.226434441	 -0.827597247	 -0.869329875
H	 2.214780740	 -0.824024225	 0.896554706
H	 1.246714235	 -2.004778237	 0.009551448
C	 0.944610872	 1.434055564	 0.000000000
H	 0.121653748	 2.150214156	 -0.006232751
H	 1.551652004	 1.625459588	 0.886087745
H	 1.561875748	 1.621865614	 -0.879778749
C	 -0.436029081	 -0.228257890	 1.243400268
H	 -1.281784057	 0.460142406	 1.268491237
H	 0.150384346	 -0.074165404	 2.150496557
H	 -0.828590347	 -1.246128310	 1.263594272
C	 -0.419913537	 -0.234419010	 -1.253187538
H	 -0.813555961	 -1.251871252	 -1.272635913
H	 -1.264369240	 0.454828457	 -1.293306126
H	 0.178371107	 -0.086199707	 -2.153469057
C	 -4.951362831	 -0.379231791	 -1.187160330
H	 -6.038965993	 -0.388236497	 -1.280816633
H	 -4.535830992	 -0.702306475	 -2.140667231
C	 -4.470033715	 1.020874184	 -0.772429711
H	 -5.102166504	 1.806594769	 -1.181704294
H	 -3.463374625	 1.195245764	 -1.151567230
C	 -4.464914492	 1.018314681	 0.777475087
H	 -5.125775548	 1.778010289	 1.190444436
H	 -3.464779879	 1.232889534	 1.152622853
C	 -4.897758115	 -0.399434939	 1.194265155
H	 -5.977624684	 -0.429315351	 1.349748759
H	 -4.424284799	 -0.729121358	 2.117999589
C	 -4.544182620	 -1.267299720	 -0.012776283
H	 -5.045271879	 -2.234309433	 -0.008823829
H	 -3.467870405	 -1.448688956	 -0.039775980
