32
0  1  0  1  0  1  17  15 -1.66057 -1.43021 -1.46970 -1.70006 -1.58096 -1.65125  2.74444  2.74327  2.73988 -1.60112 -1.52594  5.17779 -0.54861 -4.70436
C	 -4.355983808	 -0.000247358	 2.215503475
C	 -5.664321487	 -0.253642431	 2.959561178
H	 -5.634630178	 0.185870497	 3.957539817
H	 -6.507285027	 0.183137974	 2.422299453
H	 -5.849015005	 -1.323458249	 3.066470218
C	 -4.128603043	 1.503607501	 2.084218970
H	 -3.198163058	 1.712340473	 1.554226156
H	 -4.944047391	 1.972888814	 1.531849988
H	 -4.070338189	 1.974888213	 3.066460736
C	 -4.434626053	 -0.626318156	 0.825146479
H	 -3.514769233	 -0.453023499	 0.265094341
H	 -5.261260264	 -0.199663435	 0.254979390
H	 -4.591052926	 -1.704100430	 0.892141549
C	 -3.201086651	 -0.623596070	 2.995773457
H	 -3.336700390	 -1.701556771	 3.096527134
H	 -2.249232671	 -0.448918106	 2.492545260
H	 -3.135478534	 -0.196092067	 3.997450147
C	 0.285864218	 -0.379231791	 1.187160330
H	 1.373467380	 -0.388236497	 1.280816633
H	 -0.129667621	 -0.702306475	 2.140667231
C	 -0.195464898	 1.020874184	 0.772429711
H	 0.436667890	 1.806594769	 1.181704294
H	 -1.202123988	 1.195245764	 1.151567230
C	 -0.200584121	 1.018314681	 -0.777475087
H	 0.460276934	 1.778010289	 -1.190444436
H	 -1.200718734	 1.232889534	 -1.152622853
C	 0.232259502	 -0.399434939	 -1.194265155
H	 1.312126070	 -0.429315351	 -1.349748759
H	 -0.241213814	 -0.729121358	 -2.117999589
C	 -0.121315993	 -1.267299720	 0.012776283
H	 0.379773266	 -2.234309433	 0.008823829
H	 -1.197628208	 -1.448688956	 0.039775980
