32
0  1  0  1  0  1  17  15 69.02666 71.13129 68.64348 66.53885 68.34996 67.26637 97.86437 97.85528 97.76865 65.46663 -44.26927 168.09139 -24.27512 -34.08037
C	 -1.105958387	 0.000396664	 -0.000005559
C	 0.070783772	 -0.971591166	 0.009790408
H	 0.700409181	 -0.827599751	 -0.869330100
H	 0.688755480	 -0.824026729	 0.896554481
H	 -0.279311025	 -2.004780741	 0.009551223
C	 -0.581414388	 1.434053060	 -0.000000225
H	 -1.404371512	 2.150211652	 -0.006232976
H	 0.025626744	 1.625457084	 0.886087520
H	 0.035850488	 1.621863110	 -0.879778974
C	 -1.962054341	 -0.228260394	 1.243400043
H	 -2.807809317	 0.460139902	 1.268491012
H	 -1.375640914	 -0.074167908	 2.150496332
H	 -2.354615607	 -1.246130814	 1.263594047
C	 -1.945938797	 -0.234421514	 -1.253187763
H	 -2.339581221	 -1.251873756	 -1.272636138
H	 -2.790394500	 0.454825953	 -1.293306351
H	 -1.347654153	 -0.086202211	 -2.153469282
C	 -4.951362831	 -0.379231791	 -1.187160330
H	 -6.038965993	 -0.388236497	 -1.280816633
H	 -4.535830992	 -0.702306475	 -2.140667231
C	 -4.470033715	 1.020874184	 -0.772429711
H	 -5.102166504	 1.806594769	 -1.181704294
H	 -3.463374625	 1.195245764	 -1.151567230
C	 -4.464914492	 1.018314681	 0.777475087
H	 -5.125775548	 1.778010289	 1.190444436
H	 -3.464779879	 1.232889534	 1.152622853
C	 -4.897758115	 -0.399434939	 1.194265155
H	 -5.977624684	 -0.429315351	 1.349748759
H	 -4.424284799	 -0.729121358	 2.117999589
C	 -4.544182620	 -1.267299720	 -0.012776283
H	 -5.045271879	 -2.234309433	 -0.008823829
H	 -3.467870405	 -1.448688956	 -0.039775980
