32
0  1  0  1  0  1  17  15 -1.09065 -1.03959 -1.05347 -1.10452 -1.08998 -1.09855  0.22023  0.21947  0.21909 -1.12114 -0.12163  0.41301 -0.03858 -1.37394
C	 1.082658044	 -0.000826169	 -0.000005259
C	 2.512795276	 0.532268519	 0.009790708
H	 2.702907757	 1.149535826	 -0.869329800
H	 2.693986579	 1.141229935	 0.896554781
H	 3.232516297	 -0.287517256	 0.009551523
C	 0.103347184	 1.170270457	 0.000000075
H	 -0.928342912	 0.815647978	 -0.006232676
H	 0.241107003	 1.791685511	 0.886087820
H	 0.249331348	 1.798742546	 -0.879778674
C	 0.852632888	 -0.856555542	 1.243400343
H	 -0.166416745	 -1.244800689	 1.268491312
H	 1.012391594	 -0.271660374	 2.150496632
H	 1.537853896	 -1.705458781	 1.263594347
C	 0.866026346	 -0.845679632	 -1.253187463
H	 1.550344623	 -1.695310092	 -1.272635838
H	 -0.153107321	 -1.232375990	 -1.293306051
H	 1.036806987	 -0.253440280	 -2.153468982
C	 -4.951362831	 -0.379231791	 -1.187160330
H	 -6.038965993	 -0.388236497	 -1.280816633
H	 -4.535830992	 -0.702306475	 -2.140667231
C	 -4.470033715	 1.020874184	 -0.772429711
H	 -5.102166504	 1.806594769	 -1.181704294
H	 -3.463374625	 1.195245764	 -1.151567230
C	 -4.464914492	 1.018314681	 0.777475087
H	 -5.125775548	 1.778010289	 1.190444436
H	 -3.464779879	 1.232889534	 1.152622853
C	 -4.897758115	 -0.399434939	 1.194265155
H	 -5.977624684	 -0.429315351	 1.349748759
H	 -4.424284799	 -0.729121358	 2.117999589
C	 -4.544182620	 -1.267299720	 -0.012776283
H	 -5.045271879	 -2.234309433	 -0.008823829
H	 -3.467870405	 -1.448688956	 -0.039775980
