32
0  1  0  1  0  1  17  15 -1.27809 -1.17547 -1.19132 -1.29394 -1.25048 -1.27615  0.95511  0.95506  0.95377 -1.28670 -0.47888  1.73226 -0.16693 -2.37315
C	 -4.861283531	 -2.332350139	 0.000005334
C	 -6.038025690	 -3.304337969	 -0.009790633
H	 -6.667651100	 -3.160346554	 0.869329875
H	 -6.655997397	 -3.156773531	 -0.896554706
H	 -5.687930892	 -4.337527544	 -0.009551448
C	 -5.385827529	 -0.898693742	 0.000000000
H	 -4.562870406	 -0.182535150	 0.006232751
H	 -5.992868661	 -0.707289719	 -0.886087745
H	 -6.003092405	 -0.710883693	 0.879778749
C	 -4.005187577	 -2.561007197	 -1.243400268
H	 -3.159432601	 -1.872606900	 -1.268491237
H	 -4.591601004	 -2.406914711	 -2.150496557
H	 -3.612626311	 -3.578877616	 -1.263594272
C	 -4.021303120	 -2.567168316	 1.253187538
H	 -3.627660696	 -3.584620559	 1.272635913
H	 -3.176847417	 -1.877920849	 1.293306126
H	 -4.619587764	 -2.418949014	 2.153469057
C	 0.285864218	 -0.379231791	 1.187160330
H	 1.373467380	 -0.388236497	 1.280816633
H	 -0.129667621	 -0.702306475	 2.140667231
C	 -0.195464898	 1.020874184	 0.772429711
H	 0.436667890	 1.806594769	 1.181704294
H	 -1.202123988	 1.195245764	 1.151567230
C	 -0.200584121	 1.018314681	 -0.777475087
H	 0.460276934	 1.778010289	 -1.190444436
H	 -1.200718734	 1.232889534	 -1.152622853
C	 0.232259502	 -0.399434939	 -1.194265155
H	 1.312126070	 -0.429315351	 -1.349748759
H	 -0.241213814	 -0.729121358	 -2.117999589
C	 -0.121315993	 -1.267299720	 0.012776283
H	 0.379773266	 -2.234309433	 0.008823829
H	 -1.197628208	 -1.448688956	 0.039775980
