32
0  1  0  1  0  1  17  15 -1.26125 -1.19035 -1.20655 -1.27745 -1.25229 -1.26713  0.46618  0.46582  0.46512 -1.28953 -0.26007  0.87133 -0.07773 -1.82306
C	 0.906340710	 -0.000246568	 -0.000617646
C	 2.204882422	 -0.253641641	 0.760407169
H	 3.054311621	 0.185871287	 0.235704422
H	 2.161081890	 0.183138764	 1.759065873
H	 2.389815126	 -1.323457459	 0.866901929
C	 0.678954612	 1.503608291	 -0.131892912
H	 -0.245252622	 1.712341263	 -0.672681168
H	 0.608311215	 1.972889604	 0.850487100
H	 1.500468507	 1.974889003	 -0.673472639
C	 -0.258422646	 -0.626317366	 0.762667035
H	 -1.203370435	 -0.453022709	 0.246073730
H	 -0.338884724	 -0.199662645	 1.763636806
H	 -0.122189777	 -1.704099640	 0.864639146
C	 1.004625758	 -0.623595280	 -1.390922913
H	 1.159687872	 -1.701555981	 -1.323854809
H	 0.092890366	 -0.448917316	 -1.963638542
H	 1.839299159	 -0.196091277	 -1.948579555
C	 -4.951362831	 -0.379231791	 -1.187160330
H	 -6.038965993	 -0.388236497	 -1.280816633
H	 -4.535830992	 -0.702306475	 -2.140667231
C	 -4.470033715	 1.020874184	 -0.772429711
H	 -5.102166504	 1.806594769	 -1.181704294
H	 -3.463374625	 1.195245764	 -1.151567230
C	 -4.464914492	 1.018314681	 0.777475087
H	 -5.125775548	 1.778010289	 1.190444436
H	 -3.464779879	 1.232889534	 1.152622853
C	 -4.897758115	 -0.399434939	 1.194265155
H	 -5.977624684	 -0.429315351	 1.349748759
H	 -4.424284799	 -0.729121358	 2.117999589
C	 -4.544182620	 -1.267299720	 -0.012776283
H	 -5.045271879	 -2.234309433	 -0.008823829
H	 -3.467870405	 -1.448688956	 -0.039775980
