32
0  1  0  1  0  1  17  15 -1.30305 -1.11936 -1.16945 -1.35314 -1.25727 -1.31397  2.27259  2.27004  2.26700 -1.28623 -1.28391  4.23134 -0.40343 -3.83024
C	 0.375588456	 -0.000247358	 -0.000617680
C	 1.674130168	 -0.253642431	 0.760407135
H	 2.523559367	 0.185870497	 0.235704388
H	 1.630329636	 0.183137974	 1.759065839
H	 1.859062872	 -1.323458249	 0.866901895
C	 0.148202358	 1.503607501	 -0.131892946
H	 -0.776004876	 1.712340473	 -0.672681202
H	 0.077558961	 1.972888814	 0.850487066
H	 0.969716253	 1.974888213	 -0.673472673
C	 -0.789174900	 -0.626318156	 0.762667001
H	 -1.734122689	 -0.453023499	 0.246073696
H	 -0.869636978	 -0.199663435	 1.763636772
H	 -0.652942031	 -1.704100430	 0.864639112
C	 0.473873504	 -0.623596070	 -1.390922947
H	 0.628935618	 -1.701556771	 -1.323854843
H	 -0.437861888	 -0.448918106	 -1.963638576
H	 1.308546905	 -0.196092067	 -1.948579589
C	 -4.951362831	 -0.379231791	 -1.187160330
H	 -6.038965993	 -0.388236497	 -1.280816633
H	 -4.535830992	 -0.702306475	 -2.140667231
C	 -4.470033715	 1.020874184	 -0.772429711
H	 -5.102166504	 1.806594769	 -1.181704294
H	 -3.463374625	 1.195245764	 -1.151567230
C	 -4.464914492	 1.018314681	 0.777475087
H	 -5.125775548	 1.778010289	 1.190444436
H	 -3.464779879	 1.232889534	 1.152622853
C	 -4.897758115	 -0.399434939	 1.194265155
H	 -5.977624684	 -0.429315351	 1.349748759
H	 -4.424284799	 -0.729121358	 2.117999589
C	 -4.544182620	 -1.267299720	 -0.012776283
H	 -5.045271879	 -2.234309433	 -0.008823829
H	 -3.467870405	 -1.448688956	 -0.039775980
