32
0  1  0  1  0  1  17  15 -1.50542 -1.41679 -1.42194 -1.51057 -1.48166 -1.49879  0.53067  0.53036  0.52939 -1.53386 -0.27310  0.98055 -0.09832 -2.14299
C	 -4.871937174	 -0.000246568	 -2.448769126
C	 -6.170478886	 -0.253641641	 -3.209793941
H	 -7.019908085	 0.185871287	 -2.685091194
H	 -6.126678353	 0.183138764	 -4.208452644
H	 -6.355411589	 -1.323457459	 -3.316288700
C	 -4.644551075	 1.503608291	 -2.317493859
H	 -3.720343841	 1.712341263	 -1.776705603
H	 -4.573907678	 1.972889604	 -3.299873872
H	 -5.466064970	 1.974889003	 -1.775914133
C	 -3.707173817	 -0.626317366	 -3.212053806
H	 -2.762226028	 -0.453022709	 -2.695460501
H	 -3.626711739	 -0.199662645	 -4.213023577
H	 -3.843406686	 -1.704099640	 -3.314025917
C	 -4.970222221	 -0.623595280	 -1.058463858
H	 -5.125284335	 -1.701555981	 -1.125531963
H	 -4.058486829	 -0.448917316	 -0.485748230
H	 -5.804895623	 -0.196091277	 -0.500807217
C	 0.285864218	 -0.379231791	 1.187160330
H	 1.373467380	 -0.388236497	 1.280816633
H	 -0.129667621	 -0.702306475	 2.140667231
C	 -0.195464898	 1.020874184	 0.772429711
H	 0.436667890	 1.806594769	 1.181704294
H	 -1.202123988	 1.195245764	 1.151567230
C	 -0.200584121	 1.018314681	 -0.777475087
H	 0.460276934	 1.778010289	 -1.190444436
H	 -1.200718734	 1.232889534	 -1.152622853
C	 0.232259502	 -0.399434939	 -1.194265155
H	 1.312126070	 -0.429315351	 -1.349748759
H	 -0.241213814	 -0.729121358	 -2.117999589
C	 -0.121315993	 -1.267299720	 0.012776283
H	 0.379773266	 -2.234309433	 0.008823829
H	 -1.197628208	 -1.448688956	 0.039775980
