32
0  1  0  1  0  1  17  15 -1.55463 -1.42387 -1.44690 -1.57767 -1.52144 -1.55463  1.09899  1.09678  1.09516 -1.55510 -0.65370  2.10654 -0.19593 -2.81201
C	 0.560013017	 -0.000826920	 -0.000005334
C	 1.990150249	 0.532267768	 0.009790633
H	 2.180262730	 1.149535075	 -0.869329875
H	 2.171341552	 1.141229184	 0.896554706
H	 2.709871270	 -0.287518007	 0.009551448
C	 -0.419297843	 1.170269706	 0.000000000
H	 -1.450987939	 0.815647227	 -0.006232751
H	 -0.281538024	 1.791684760	 0.886087745
H	 -0.273313679	 1.798741795	 -0.879778749
C	 0.329987861	 -0.856556293	 1.243400268
H	 -0.689061772	 -1.244801440	 1.268491237
H	 0.489746567	 -0.271661125	 2.150496557
H	 1.015208869	 -1.705459532	 1.263594272
C	 0.343381319	 -0.845680383	 -1.253187538
H	 1.027699596	 -1.695310843	 -1.272635913
H	 -0.675752348	 -1.232376741	 -1.293306126
H	 0.514161960	 -0.253441031	 -2.153469057
C	 -4.951362831	 -0.379231791	 -1.187160330
H	 -6.038965993	 -0.388236497	 -1.280816633
H	 -4.535830992	 -0.702306475	 -2.140667231
C	 -4.470033715	 1.020874184	 -0.772429711
H	 -5.102166504	 1.806594769	 -1.181704294
H	 -3.463374625	 1.195245764	 -1.151567230
C	 -4.464914492	 1.018314681	 0.777475087
H	 -5.125775548	 1.778010289	 1.190444436
H	 -3.464779879	 1.232889534	 1.152622853
C	 -4.897758115	 -0.399434939	 1.194265155
H	 -5.977624684	 -0.429315351	 1.349748759
H	 -4.424284799	 -0.729121358	 2.117999589
C	 -4.544182620	 -1.267299720	 -0.012776283
H	 -5.045271879	 -2.234309433	 -0.008823829
H	 -3.467870405	 -1.448688956	 -0.039775980
