32
0  1  0  1  0  1  17  15 -0.31968 -0.02672 -0.13764 -0.43061 -0.25310 -0.35877  4.81580  4.81067  4.80344 -0.24333 -2.72533  8.93143 -0.88542 -5.56401
C	 0.117837226	 -0.000247753	 0.000608308
C	 1.426174905	 -0.253642826	 -0.743449395
H	 1.396483596	 0.185870102	 -1.741428034
H	 2.269138446	 0.183137579	 -0.206187670
H	 1.610868424	 -1.323458644	 -0.850358435
C	 -0.109543538	 1.503607106	 0.131892812
H	 -1.039983523	 1.712340078	 0.661885627
H	 0.705900810	 1.972888419	 0.684261794
H	 -0.167808392	 1.974887818	 -0.850348954
C	 0.196479472	 -0.626318551	 1.390965304
H	 -0.723377348	 -0.453023894	 1.951017442
H	 1.023113683	 -0.199663830	 1.961132393
H	 0.352906345	 -1.704100825	 1.323970234
C	 -1.037059930	 -0.623596465	 -0.779661674
H	 -0.901446191	 -1.701557166	 -0.880415352
H	 -1.988913910	 -0.448918501	 -0.276433478
H	 -1.102668048	 -0.196092462	 -1.781338365
C	 -4.951362831	 -0.379231791	 -1.187160330
H	 -6.038965993	 -0.388236497	 -1.280816633
H	 -4.535830992	 -0.702306475	 -2.140667231
C	 -4.470033715	 1.020874184	 -0.772429711
H	 -5.102166504	 1.806594769	 -1.181704294
H	 -3.463374625	 1.195245764	 -1.151567230
C	 -4.464914492	 1.018314681	 0.777475087
H	 -5.125775548	 1.778010289	 1.190444436
H	 -3.464779879	 1.232889534	 1.152622853
C	 -4.897758115	 -0.399434939	 1.194265155
H	 -5.977624684	 -0.429315351	 1.349748759
H	 -4.424284799	 -0.729121358	 2.117999589
C	 -4.544182620	 -1.267299720	 -0.012776283
H	 -5.045271879	 -2.234309433	 -0.008823829
H	 -3.467870405	 -1.448688956	 -0.039775980
