32
0  1  0  1  0  1  17  15  6.24580  6.91350  6.42268  5.75498  6.25105  5.95405 16.20000 16.18836 16.16415  6.36907 -9.73993 30.23297 -3.03272 -11.09125
C	 -3.888789749	 -1.865801947	 0.000005484
C	 -5.065531908	 -2.837789777	 -0.009790483
H	 -5.695157318	 -2.693798362	 0.869330025
H	 -5.683503615	 -2.690225339	 -0.896554556
H	 -4.715437110	 -3.870979352	 -0.009551298
C	 -4.413333747	 -0.432145550	 0.000000150
H	 -3.590376624	 0.284013042	 0.006232901
H	 -5.020374879	 -0.240741527	 -0.886087595
H	 -5.030598623	 -0.244335501	 0.879778899
C	 -3.032693795	 -2.094459005	 -1.243400118
H	 -2.186938819	 -1.406058708	 -1.268491087
H	 -3.619107222	 -1.940366519	 -2.150496407
H	 -2.640132529	 -3.112329424	 -1.263594122
C	 -3.048809338	 -2.100620124	 1.253187688
H	 -2.655166914	 -3.118072367	 1.272636063
H	 -2.204353635	 -1.411372657	 1.293306276
H	 -3.647093982	 -1.952400822	 2.153469207
C	 0.285864218	 -0.379231791	 1.187160330
H	 1.373467380	 -0.388236497	 1.280816633
H	 -0.129667621	 -0.702306475	 2.140667231
C	 -0.195464898	 1.020874184	 0.772429711
H	 0.436667890	 1.806594769	 1.181704294
H	 -1.202123988	 1.195245764	 1.151567230
C	 -0.200584121	 1.018314681	 -0.777475087
H	 0.460276934	 1.778010289	 -1.190444436
H	 -1.200718734	 1.232889534	 -1.152622853
C	 0.232259502	 -0.399434939	 -1.194265155
H	 1.312126070	 -0.429315351	 -1.349748759
H	 -0.241213814	 -0.729121358	 -2.117999589
C	 -0.121315993	 -1.267299720	 0.012776283
H	 0.379773266	 -2.234309433	 0.008823829
H	 -1.197628208	 -1.448688956	 0.039775980
