32
0  1  0  1  0  1  17  15 -1.24539 -1.17531 -1.19065 -1.26073 -1.23601 -1.25059  0.45640  0.45595  0.45528 -1.27356 -0.25585  0.85486 -0.07614 -1.79642
C	 0.915237312	 -0.000246568	 0.000608483
C	 2.223574991	 -0.253641641	 -0.743449220
H	 2.193883682	 0.185871287	 -1.741427859
H	 3.066538532	 0.183138764	 -0.206187495
H	 2.408268510	 -1.323457459	 -0.850358260
C	 0.687856548	 1.503608291	 0.131892987
H	 -0.242583437	 1.712341263	 0.661885802
H	 1.503300896	 1.972889604	 0.684261969
H	 0.629591694	 1.974889003	 -0.850348779
C	 0.993879558	 -0.626317366	 1.390965479
H	 0.074022738	 -0.453022709	 1.951017617
H	 1.820513769	 -0.199662645	 1.961132568
H	 1.150306431	 -1.704099640	 1.323970409
C	 -0.239659844	 -0.623595280	 -0.779661499
H	 -0.104046105	 -1.701555981	 -0.880415177
H	 -1.191513824	 -0.448917316	 -0.276433303
H	 -0.305267962	 -0.196091277	 -1.781338190
C	 -4.951362831	 -0.379231791	 -1.187160330
H	 -6.038965993	 -0.388236497	 -1.280816633
H	 -4.535830992	 -0.702306475	 -2.140667231
C	 -4.470033715	 1.020874184	 -0.772429711
H	 -5.102166504	 1.806594769	 -1.181704294
H	 -3.463374625	 1.195245764	 -1.151567230
C	 -4.464914492	 1.018314681	 0.777475087
H	 -5.125775548	 1.778010289	 1.190444436
H	 -3.464779879	 1.232889534	 1.152622853
C	 -4.897758115	 -0.399434939	 1.194265155
H	 -5.977624684	 -0.429315351	 1.349748759
H	 -4.424284799	 -0.729121358	 2.117999589
C	 -4.544182620	 -1.267299720	 -0.012776283
H	 -5.045271879	 -2.234309433	 -0.008823829
H	 -3.467870405	 -1.448688956	 -0.039775980
