32
0  1  0  1  0  1  17  15 -2.06632 -1.68441 -1.86417 -2.24607 -2.03585 -2.16030  4.48605  4.47787  4.47098 -1.99191 -2.81381  8.66512 -0.78833 -7.05489
C	 0.044549722	 0.083893057	 5.379012095
C	 -0.051794475	 -0.068192919	 6.894652574
H	 0.940751893	 -0.083659123	 7.347009795
H	 -0.610719243	 0.759691582	 7.333087486
H	 -0.558959173	 -0.996858998	 7.160002164
C	 0.758602965	 1.390798171	 5.043387215
H	 0.840122511	 1.524297303	 3.963705341
H	 0.215130578	 2.245486606	 5.448888599
H	 1.766207508	 1.401448586	 5.461620216
C	 -1.360462091	 0.103717705	 4.781692572
H	 -1.323530503	 0.220907640	 3.697843606
H	 -1.942761623	 0.931141263	 5.190038492
H	 -1.890365151	 -0.824069139	 5.003021865
C	 0.832449536	 -1.089591847	 4.801673922
H	 0.337229220	 -2.036582584	 5.021917070
H	 0.927292709	 -1.002409083	 3.718539145
H	 1.837167620	 -1.126996485	 5.225422378
C	 0.799914079	 -1.022051643	 0.687736956
H	 0.853555876	 -1.122051012	 -0.398014355
H	 1.491402098	 -1.744169358	 1.119720403
C	 1.116887003	 0.424952788	 1.099662054
H	 1.838142304	 0.890145042	 0.430452563
H	 1.555569586	 0.439824638	 2.097083555
C	 -0.244559155	 1.165689590	 1.102977140
H	 -0.258077602	 2.000863135	 0.405323332
H	 -0.448804499	 1.576995819	 2.090984469
C	 -1.298714178	 0.103811907	 0.739308994
H	 -1.473560779	 0.105243377	 -0.338005451
H	 -2.256734278	 0.278041178	 1.227158427
C	 -0.646879933	 -1.220068359	 1.136306600
H	 -1.124439184	 -2.087627024	 0.682993267
H	 -0.686018645	 -1.345283315	 2.220220065
