32
0  1  0  1  0  1  17  15 52.64403 54.52927 52.53163 50.64640 52.25319 51.29223 75.95120 75.95290 75.87696 49.28862 -44.37451 135.81022 -14.00587 -28.14123
C	 -0.945362889	 -0.000249332	 0.000608075
C	 0.362974790	 -0.253644405	 -0.743449628
H	 0.333283481	 0.185868523	 -1.741428267
H	 1.205938331	 0.183136000	 -0.206187903
H	 0.547668309	 -1.323460223	 -0.850358668
C	 -1.172743653	 1.503605527	 0.131892579
H	 -2.103183638	 1.712338499	 0.661885394
H	 -0.357299305	 1.972886840	 0.684261561
H	 -1.231008507	 1.974886239	 -0.850349187
C	 -0.866720643	 -0.626320130	 1.390965071
H	 -1.786577463	 -0.453025473	 1.951017209
H	 -0.040086432	 -0.199665409	 1.961132160
H	 -0.710293770	 -1.704102404	 1.323970001
C	 -2.100260045	 -0.623598044	 -0.779661907
H	 -1.964646306	 -1.701558745	 -0.880415585
H	 -3.052114025	 -0.448920080	 -0.276433711
H	 -2.165868163	 -0.196094041	 -1.781338598
C	 -4.951362831	 -0.379231791	 -1.187160330
H	 -6.038965993	 -0.388236497	 -1.280816633
H	 -4.535830992	 -0.702306475	 -2.140667231
C	 -4.470033715	 1.020874184	 -0.772429711
H	 -5.102166504	 1.806594769	 -1.181704294
H	 -3.463374625	 1.195245764	 -1.151567230
C	 -4.464914492	 1.018314681	 0.777475087
H	 -5.125775548	 1.778010289	 1.190444436
H	 -3.464779879	 1.232889534	 1.152622853
C	 -4.897758115	 -0.399434939	 1.194265155
H	 -5.977624684	 -0.429315351	 1.349748759
H	 -4.424284799	 -0.729121358	 2.117999589
C	 -4.544182620	 -1.267299720	 -0.012776283
H	 -5.045271879	 -2.234309433	 -0.008823829
H	 -3.467870405	 -1.448688956	 -0.039775980
