32
0  1  0  1  0  1  17  15 52.92952 54.83458 52.81221 50.90715 52.52784 51.55886 76.46457 76.46527 76.38938 49.54338 -44.83584 136.59411 -13.81150 -28.40340
C	 -0.951292179	 -0.000249332	 -0.000617763
C	 0.347249533	 -0.253644405	 0.760407052
H	 1.196678732	 0.185868523	 0.235704305
H	 0.303449001	 0.183136000	 1.759065756
H	 0.532182237	 -1.323460223	 0.866901812
C	 -1.178678277	 1.503605527	 -0.131893029
H	 -2.102885511	 1.712338499	 -0.672681285
H	 -1.249321674	 1.972886840	 0.850486983
H	 -0.357164382	 1.974886239	 -0.673472756
C	 -2.116055535	 -0.626320130	 0.762666918
H	 -3.061003324	 -0.453025473	 0.246073613
H	 -2.196517613	 -0.199665409	 1.763636689
H	 -1.979822666	 -1.704102404	 0.864639029
C	 -0.853007131	 -0.623598044	 -1.390923030
H	 -0.697945017	 -1.701558745	 -1.323854926
H	 -1.764742523	 -0.448920080	 -1.963638659
H	 -0.018333730	 -0.196094041	 -1.948579672
C	 -4.951362831	 -0.379231791	 -1.187160330
H	 -6.038965993	 -0.388236497	 -1.280816633
H	 -4.535830992	 -0.702306475	 -2.140667231
C	 -4.470033715	 1.020874184	 -0.772429711
H	 -5.102166504	 1.806594769	 -1.181704294
H	 -3.463374625	 1.195245764	 -1.151567230
C	 -4.464914492	 1.018314681	 0.777475087
H	 -5.125775548	 1.778010289	 1.190444436
H	 -3.464779879	 1.232889534	 1.152622853
C	 -4.897758115	 -0.399434939	 1.194265155
H	 -5.977624684	 -0.429315351	 1.349748759
H	 -4.424284799	 -0.729121358	 2.117999589
C	 -4.544182620	 -1.267299720	 -0.012776283
H	 -5.045271879	 -2.234309433	 -0.008823829
H	 -3.467870405	 -1.448688956	 -0.039775980
