32
0  1  0  1  0  1  17  15 11.24010 12.49652 11.36096 10.10454 11.06274 10.49382 28.72605 28.70762 28.67215 11.56625 -18.43097 54.33731 -4.84422 -19.49588
C	 0.028946283	 0.053506072	 4.680021452
C	 -0.067397914	 -0.098579904	 6.195661931
H	 0.925148454	 -0.114046108	 6.648019152
H	 -0.626322682	 0.729304597	 6.634096843
H	 -0.574562612	 -1.027245983	 6.461011521
C	 0.742999526	 1.360411186	 4.344396572
H	 0.824519072	 1.493910318	 3.264714698
H	 0.199527139	 2.215099621	 4.749897956
H	 1.750604069	 1.371061601	 4.762629573
C	 -1.376065530	 0.073330720	 4.082701929
H	 -1.339133942	 0.190520655	 2.998852963
H	 -1.958365062	 0.900754278	 4.491047849
H	 -1.905968590	 -0.854456124	 4.304031222
C	 0.816846097	 -1.119978832	 4.102683279
H	 0.321625781	 -2.066969569	 4.322926427
H	 0.911689270	 -1.032796068	 3.019548502
H	 1.821564181	 -1.157383470	 4.526431735
C	 0.799914079	 -1.022051643	 0.687736956
H	 0.853555876	 -1.122051012	 -0.398014355
H	 1.491402098	 -1.744169358	 1.119720403
C	 1.116887003	 0.424952788	 1.099662054
H	 1.838142304	 0.890145042	 0.430452563
H	 1.555569586	 0.439824638	 2.097083555
C	 -0.244559155	 1.165689590	 1.102977140
H	 -0.258077602	 2.000863135	 0.405323332
H	 -0.448804499	 1.576995819	 2.090984469
C	 -1.298714178	 0.103811907	 0.739308994
H	 -1.473560779	 0.105243377	 -0.338005451
H	 -2.256734278	 0.278041178	 1.227158427
C	 -0.646879933	 -1.220068359	 1.136306600
H	 -1.124439184	 -2.087627024	 0.682993267
H	 -0.686018645	 -1.345283315	 2.220220065
