32
0  1  0  1  0  1  17  15 -1.56116 -1.46775 -1.47593 -1.56935 -1.53838 -1.55673  0.57276  0.57251  0.57145 -1.59131 -0.29720  1.06158 -0.10621 -2.24948
C	 -4.814620490	 -0.000246568	 2.448778289
C	 -6.122958169	 -0.253641641	 3.192835992
H	 -6.093266860	 0.185871287	 4.190814631
H	 -6.965921709	 0.183138764	 2.655574267
H	 -6.307651687	 -1.323457459	 3.299745032
C	 -4.587239725	 1.503608291	 2.317493784
H	 -3.656799740	 1.712341263	 1.787500970
H	 -5.402684073	 1.972889604	 1.765124802
H	 -4.528974871	 1.974889003	 3.299735550
C	 -4.893262735	 -0.626317366	 1.058421293
H	 -3.973405915	 -0.453022709	 0.498369155
H	 -5.719896946	 -0.199662645	 0.488254204
H	 -5.049689608	 -1.704099640	 1.125416363
C	 -3.659723333	 -0.623595280	 3.229048271
H	 -3.795337072	 -1.701555981	 3.329801948
H	 -2.707869353	 -0.448917316	 2.725820074
H	 -3.594115216	 -0.196091277	 4.230724961
C	 0.285864218	 -0.379231791	 1.187160330
H	 1.373467380	 -0.388236497	 1.280816633
H	 -0.129667621	 -0.702306475	 2.140667231
C	 -0.195464898	 1.020874184	 0.772429711
H	 0.436667890	 1.806594769	 1.181704294
H	 -1.202123988	 1.195245764	 1.151567230
C	 -0.200584121	 1.018314681	 -0.777475087
H	 0.460276934	 1.778010289	 -1.190444436
H	 -1.200718734	 1.232889534	 -1.152622853
C	 0.232259502	 -0.399434939	 -1.194265155
H	 1.312126070	 -0.429315351	 -1.349748759
H	 -0.241213814	 -0.729121358	 -2.117999589
C	 -0.121315993	 -1.267299720	 0.012776283
H	 0.379773266	 -2.234309433	 0.008823829
H	 -1.197628208	 -1.448688956	 0.039775980
