32
0  1  0  1  0  1  17  15 -1.40399 -1.19686 -1.24691 -1.45405 -1.34628 -1.41010  2.43294  2.42843  2.42484 -1.35541 -1.46041  4.64493 -0.43977 -4.10016
C	 0.298690503	 -0.000827296	 -0.000005371
C	 1.728827735	 0.532267392	 0.009790596
H	 1.918940216	 1.149534699	 -0.869329912
H	 1.910019038	 1.141228808	 0.896554669
H	 2.448548756	 -0.287518383	 0.009551411
C	 -0.680620357	 1.170269330	 -0.000000037
H	 -1.712310453	 0.815646851	 -0.006232788
H	 -0.542860538	 1.791684384	 0.886087708
H	 -0.534636193	 1.798741419	 -0.879778786
C	 0.068665347	 -0.856556669	 1.243400231
H	 -0.950384286	 -1.244801816	 1.268491200
H	 0.228424053	 -0.271661501	 2.150496520
H	 0.753886355	 -1.705459908	 1.263594235
C	 0.082058805	 -0.845680759	 -1.253187575
H	 0.766377082	 -1.695311219	 -1.272635950
H	 -0.937074862	 -1.232377117	 -1.293306163
H	 0.252839446	 -0.253441407	 -2.153469094
C	 -4.951362831	 -0.379231791	 -1.187160330
H	 -6.038965993	 -0.388236497	 -1.280816633
H	 -4.535830992	 -0.702306475	 -2.140667231
C	 -4.470033715	 1.020874184	 -0.772429711
H	 -5.102166504	 1.806594769	 -1.181704294
H	 -3.463374625	 1.195245764	 -1.151567230
C	 -4.464914492	 1.018314681	 0.777475087
H	 -5.125775548	 1.778010289	 1.190444436
H	 -3.464779879	 1.232889534	 1.152622853
C	 -4.897758115	 -0.399434939	 1.194265155
H	 -5.977624684	 -0.429315351	 1.349748759
H	 -4.424284799	 -0.729121358	 2.117999589
C	 -4.544182620	 -1.267299720	 -0.012776283
H	 -5.045271879	 -2.234309433	 -0.008823829
H	 -3.467870405	 -1.448688956	 -0.039775980
