32
0  1  0  1  0  1  17  15 -1.01357 -0.96929 -0.98377 -1.02806 -1.01562 -1.02295  0.20793  0.20748  0.20715 -1.04535 -0.11367  0.38535 -0.03429 -1.28274
C	 1.171716837	 -0.000246173	 -0.000617630
C	 2.470258549	 -0.253641246	 0.760407185
H	 3.319687748	 0.185871682	 0.235704438
H	 2.426458017	 0.183139159	 1.759065889
H	 2.655191253	 -1.323457064	 0.866901945
C	 0.944330739	 1.503608686	 -0.131892896
H	 0.020123505	 1.712341658	 -0.672681152
H	 0.873687342	 1.972889999	 0.850487116
H	 1.765844634	 1.974889398	 -0.673472623
C	 0.006953481	 -0.626316971	 0.762667051
H	 -0.937994308	 -0.453022314	 0.246073746
H	 -0.073508597	 -0.199662250	 1.763636822
H	 0.143186350	 -1.704099245	 0.864639162
C	 1.270001885	 -0.623594885	 -1.390922897
H	 1.425063999	 -1.701555586	 -1.323854793
H	 0.358266493	 -0.448916921	 -1.963638526
H	 2.104675286	 -0.196090882	 -1.948579539
C	 -4.951362831	 -0.379231791	 -1.187160330
H	 -6.038965993	 -0.388236497	 -1.280816633
H	 -4.535830992	 -0.702306475	 -2.140667231
C	 -4.470033715	 1.020874184	 -0.772429711
H	 -5.102166504	 1.806594769	 -1.181704294
H	 -3.463374625	 1.195245764	 -1.151567230
C	 -4.464914492	 1.018314681	 0.777475087
H	 -5.125775548	 1.778010289	 1.190444436
H	 -3.464779879	 1.232889534	 1.152622853
C	 -4.897758115	 -0.399434939	 1.194265155
H	 -5.977624684	 -0.429315351	 1.349748759
H	 -4.424284799	 -0.729121358	 2.117999589
C	 -4.544182620	 -1.267299720	 -0.012776283
H	 -5.045271879	 -2.234309433	 -0.008823829
H	 -3.467870405	 -1.448688956	 -0.039775980
