32
0  1  0  1  0  1  17  15 -1.88324 -1.77091 -1.81144 -1.92377 -1.88541 -1.90791  0.62009  0.61866  0.61790 -1.92687 -0.36530  1.18767 -0.10656 -2.64268
C	 0.060153161	 0.114280042	 6.078002738
C	 -0.036191036	 -0.037805934	 7.593643217
H	 0.956355332	 -0.053272138	 8.046000438
H	 -0.595115804	 0.790078567	 8.032078129
H	 -0.543355734	 -0.966472013	 7.858992807
C	 0.774206404	 1.421185156	 5.742377858
H	 0.855725950	 1.554684288	 4.662695984
H	 0.230734017	 2.275873591	 6.147879242
H	 1.781810947	 1.431835571	 6.160610859
C	 -1.344858652	 0.134104690	 5.480683215
H	 -1.307927064	 0.251294625	 4.396834249
H	 -1.927158184	 0.961528248	 5.889029135
H	 -1.874761712	 -0.793682154	 5.702012508
C	 0.848052975	 -1.059204862	 5.500664565
H	 0.352832659	 -2.006195599	 5.720907713
H	 0.942896148	 -0.972022098	 4.417529788
H	 1.852771059	 -1.096609500	 5.924413021
C	 0.799914079	 -1.022051643	 0.687736956
H	 0.853555876	 -1.122051012	 -0.398014355
H	 1.491402098	 -1.744169358	 1.119720403
C	 1.116887003	 0.424952788	 1.099662054
H	 1.838142304	 0.890145042	 0.430452563
H	 1.555569586	 0.439824638	 2.097083555
C	 -0.244559155	 1.165689590	 1.102977140
H	 -0.258077602	 2.000863135	 0.405323332
H	 -0.448804499	 1.576995819	 2.090984469
C	 -1.298714178	 0.103811907	 0.739308994
H	 -1.473560779	 0.105243377	 -0.338005451
H	 -2.256734278	 0.278041178	 1.227158427
C	 -0.646879933	 -1.220068359	 1.136306600
H	 -1.124439184	 -2.087627024	 0.682993267
H	 -0.686018645	 -1.345283315	 2.220220065
