32
0  1  0  1  0  1  17  15 -1.25458 -1.20135 -1.21139 -1.26462 -1.25091 -1.25899  0.25566  0.25609  0.25572 -1.29437 -0.13143  0.46857 -0.04268 -1.58883
C	 0.928741960	 0.000400003	 -0.000005259
C	 2.105484119	 -0.971587827	 0.009790708
H	 2.735109528	 -0.827596412	 -0.869329800
H	 2.723455827	 -0.824023390	 0.896554781
H	 1.755389322	 -2.004777402	 0.009551523
C	 1.453285959	 1.434056399	 0.000000075
H	 0.630328835	 2.150214991	 -0.006232676
H	 2.060327091	 1.625460423	 0.886087820
H	 2.070550835	 1.621866449	 -0.879778674
C	 0.072646006	 -0.228257055	 1.243400343
H	 -0.773108970	 0.460143241	 1.268491312
H	 0.659059433	 -0.074164569	 2.150496632
H	 -0.319915260	 -1.246127475	 1.263594347
C	 0.088761550	 -0.234418175	 -1.253187463
H	 -0.304880874	 -1.251870417	 -1.272635838
H	 -0.755694153	 0.454829292	 -1.293306051
H	 0.687046194	 -0.086198872	 -2.153468982
C	 -4.951362831	 -0.379231791	 -1.187160330
H	 -6.038965993	 -0.388236497	 -1.280816633
H	 -4.535830992	 -0.702306475	 -2.140667231
C	 -4.470033715	 1.020874184	 -0.772429711
H	 -5.102166504	 1.806594769	 -1.181704294
H	 -3.463374625	 1.195245764	 -1.151567230
C	 -4.464914492	 1.018314681	 0.777475087
H	 -5.125775548	 1.778010289	 1.190444436
H	 -3.464779879	 1.232889534	 1.152622853
C	 -4.897758115	 -0.399434939	 1.194265155
H	 -5.977624684	 -0.429315351	 1.349748759
H	 -4.424284799	 -0.729121358	 2.117999589
C	 -4.544182620	 -1.267299720	 -0.012776283
H	 -5.045271879	 -2.234309433	 -0.008823829
H	 -3.467870405	 -1.448688956	 -0.039775980
