32
0  1  0  1  0  1  17  15 -0.32875 -0.03285 -0.14925 -0.44515 -0.26537 -0.37237  4.87716  4.87212  4.86486 -0.25403 -2.75990  9.03929 -0.89332 -5.64010
C	 0.110212329	 -0.000247753	 -0.000617696
C	 1.408754041	 -0.253642826	 0.760407119
H	 2.258183240	 0.185870102	 0.235704372
H	 1.364953509	 0.183137579	 1.759065823
H	 1.593686745	 -1.323458644	 0.866901879
C	 -0.117173769	 1.503607106	 -0.131892962
H	 -1.041381003	 1.712340078	 -0.672681218
H	 -0.187817166	 1.972888419	 0.850487050
H	 0.704340126	 1.974887818	 -0.673472689
C	 -1.054551027	 -0.626318551	 0.762666985
H	 -1.999498816	 -0.453023894	 0.246073680
H	 -1.135013105	 -0.199663830	 1.763636756
H	 -0.918318158	 -1.704100825	 0.864639096
C	 0.208497377	 -0.623596465	 -1.390922963
H	 0.363559491	 -1.701557166	 -1.323854859
H	 -0.703238015	 -0.448918501	 -1.963638592
H	 1.043170778	 -0.196092462	 -1.948579605
C	 -4.951362831	 -0.379231791	 -1.187160330
H	 -6.038965993	 -0.388236497	 -1.280816633
H	 -4.535830992	 -0.702306475	 -2.140667231
C	 -4.470033715	 1.020874184	 -0.772429711
H	 -5.102166504	 1.806594769	 -1.181704294
H	 -3.463374625	 1.195245764	 -1.151567230
C	 -4.464914492	 1.018314681	 0.777475087
H	 -5.125775548	 1.778010289	 1.190444436
H	 -3.464779879	 1.232889534	 1.152622853
C	 -4.897758115	 -0.399434939	 1.194265155
H	 -5.977624684	 -0.429315351	 1.349748759
H	 -4.424284799	 -0.729121358	 2.117999589
C	 -4.544182620	 -1.267299720	 -0.012776283
H	 -5.045271879	 -2.234309433	 -0.008823829
H	 -3.467870405	 -1.448688956	 -0.039775980
