30
0  1  0  1  0  1  15  15 12.93202 13.93311 13.00003 11.99895 12.79807 12.32126 27.11703 27.10847 27.07336 13.14152 -16.89176 50.93635 -5.23302 -15.67005
C	 -1.040584957	 1.709843770	 -0.000000899
H	 -0.178075934	 2.369674662	 -0.084416880
H	 -1.920150930	 2.346296199	 0.079893584
C	 -1.113054498	 0.763204971	 -1.226130505
H	 -0.255967138	 0.929440030	 -1.877998596
H	 -2.006182280	 0.929334112	 -1.826134833
C	 -1.058829864	 -0.660333565	 -0.650475845
H	 -0.608444089	 -1.376239760	 -1.336241181
H	 -2.066963959	 -1.011730866	 -0.421241523
C	 -0.282988321	 -0.489684282	 0.654062870
H	 0.776630362	 -0.335750414	 0.436369711
H	 -0.367928423	 -1.344016057	 1.324151490
C	 -0.888683582	 0.791355767	 1.226105947
H	 -0.288993888	 1.239980361	 2.016319571
H	 -1.869546825	 0.563066269	 1.646796160
C	 -4.536827722	 1.494646401	 1.103578164
H	 -3.872966746	 0.628004558	 1.080074098
H	 -5.067463194	 1.477367215	 2.054263930
C	 -3.729434857	 2.785190914	 0.895380255
H	 -2.734851566	 2.722021123	 1.333696803
H	 -4.237800142	 3.619298885	 1.378106404
C	 -3.685846420	 3.004750293	 -0.639087283
H	 -2.667744471	 3.008404757	 -1.024503530
H	 -4.125078334	 3.968304770	 -0.894054472
C	 -4.520742122	 1.862825776	 -1.246607500
H	 -3.874854174	 1.019998764	 -1.498999935
H	 -5.042294061	 2.160057330	 -2.154868087
C	 -5.458537909	 1.448438443	 -0.113446313
H	 -5.921145659	 0.475006550	 -0.270318863
H	 -6.256140341	 2.186746840	 -0.001219566
