30
0  1  0  1  0  1  15  15 -1.69082 -1.58962 -1.63490 -1.73611 -1.69573 -1.71951  0.66032  0.66018  0.65914 -1.70379 -0.40588  1.28896 -0.12139 -2.46549
C	 0.054431036	 1.285798335	 0.106011601
H	 0.916940059	 1.945629227	 0.021595620
H	 -0.825134937	 1.922250764	 0.185906084
C	 -0.018038505	 0.339159536	 -1.120118005
H	 0.839048855	 0.505394595	 -1.771986096
H	 -0.911166287	 0.505288677	 -1.720122333
C	 0.036186129	 -1.084379000	 -0.544463345
H	 0.486571904	 -1.800285195	 -1.230228681
H	 -0.971947966	 -1.435776301	 -0.315229023
C	 0.812027672	 -0.913729717	 0.760075370
H	 1.871646355	 -0.759795849	 0.542382211
H	 0.727087570	 -1.768061492	 1.430163990
C	 0.206332411	 0.367310332	 1.332118447
H	 0.806022105	 0.815934926	 2.122332071
H	 -0.774530832	 0.139020834	 1.752808660
C	 -4.753258227	 -0.617492160	 -1.073683573
H	 -3.868343536	 -1.036095524	 -0.589917996
H	 -5.619095607	 -0.897774110	 -0.475817652
C	 -4.602436790	 0.903848606	 -1.227013014
H	 -4.048304274	 1.346433607	 -0.400960102
H	 -5.586253175	 1.372024655	 -1.237615524
C	 -3.897583694	 1.115786824	 -2.591916381
H	 -2.942881537	 1.628002657	 -2.485759182
H	 -4.516755362	 1.730633522	 -3.243806061
C	 -3.725527541	 -0.290596668	 -3.194083637
H	 -2.749960561	 -0.697562298	 -2.922277458
H	 -3.791266240	 -0.293962561	 -4.280806881
C	 -4.816019996	 -1.118364519	 -2.515217916
H	 -4.663031159	 -2.192685142	 -2.608030588
H	 -5.790032107	 -0.877771907	 -2.947975786
