30
0  1  0  1  0  1  15  15 -0.43342 -0.05033 -0.29123 -0.67432 -0.42618 -0.57332  6.27711  6.27184  6.26309 -0.20570 -3.87101 12.07491 -1.23432 -7.17527
C	 -0.599384557	 1.285798159	 -0.212023201
H	 0.263124466	 1.945629051	 -0.296439182
H	 -1.478950530	 1.922250588	 -0.132128718
C	 -0.671854098	 0.339159360	 -1.438152807
H	 0.185233262	 0.505394419	 -2.090020898
H	 -1.564981880	 0.505288501	 -2.038157135
C	 -0.617629464	 -1.084379176	 -0.862498147
H	 -0.167243689	 -1.800285371	 -1.548263483
H	 -1.625763559	 -1.435776477	 -0.633263825
C	 0.158212079	 -0.913729893	 0.442040568
H	 1.217830762	 -0.759796025	 0.224347409
H	 0.073271977	 -1.768061668	 1.112129188
C	 -0.447483182	 0.367310156	 1.014083645
H	 0.152206512	 0.815934750	 1.804297269
H	 -1.428346425	 0.139020658	 1.434773858
C	 -4.753258227	 -0.617492160	 -1.073683573
H	 -3.868343536	 -1.036095524	 -0.589917996
H	 -5.619095607	 -0.897774110	 -0.475817652
C	 -4.602436790	 0.903848606	 -1.227013014
H	 -4.048304274	 1.346433607	 -0.400960102
H	 -5.586253175	 1.372024655	 -1.237615524
C	 -3.897583694	 1.115786824	 -2.591916381
H	 -2.942881537	 1.628002657	 -2.485759182
H	 -4.516755362	 1.730633522	 -3.243806061
C	 -3.725527541	 -0.290596668	 -3.194083637
H	 -2.749960561	 -0.697562298	 -2.922277458
H	 -3.791266240	 -0.293962561	 -4.280806881
C	 -4.816019996	 -1.118364519	 -2.515217916
H	 -4.663031159	 -2.192685142	 -2.608030588
H	 -5.790032107	 -0.877771907	 -2.947975786
