30
0  1  0  1  0  1  15  15 75.05139 77.29936 74.35528 72.10731 74.09338 72.90504 103.69274 103.68811 103.59295 70.73868 -53.30051 182.66053 -24.23035 -34.39099
C	 -2.624752514	 1.285797925	 0.000001563
H	 -3.487261538	 1.945628817	 0.084417544
H	 -1.745186542	 1.922250354	 -0.079892920
C	 -2.552282974	 0.339159126	 1.226131169
H	 -3.409370334	 0.505394185	 1.877999260
H	 -1.659155192	 0.505288267	 1.826135497
C	 -2.606507608	 -1.084379410	 0.650476509
H	 -3.056893383	 -1.800285605	 1.336241845
H	 -1.598373512	 -1.435776711	 0.421242187
C	 -3.382349150	 -0.913730127	 -0.654062206
H	 -4.441967834	 -0.759796259	 -0.436369047
H	 -3.297409048	 -1.768061902	 -1.324150826
C	 -2.776653890	 0.367309922	 -1.226105283
H	 -3.376343584	 0.815934516	 -2.016318907
H	 -1.795790647	 0.139020424	 -1.646795496
C	 0.994679307	 -0.617492160	 -1.046543227
H	 0.109764616	 -1.036095524	 -1.530308804
H	 1.860516688	 -0.897774110	 -1.644409147
C	 0.843857871	 0.903848606	 -0.893213786
H	 0.289725354	 1.346433607	 -1.719266697
H	 1.827674256	 1.372024655	 -0.882611275
C	 0.139004775	 1.115786824	 0.471689582
H	 -0.815697382	 1.628002657	 0.365532382
H	 0.758176443	 1.730633522	 1.123579261
C	 -0.033051378	 -0.290596668	 1.073856837
H	 -1.008618358	 -0.697562298	 0.802050659
H	 0.032687320	 -0.293962561	 2.160580081
C	 1.057441076	 -1.118364519	 0.394991117
H	 0.904452240	 -2.192685142	 0.487803788
H	 2.031453188	 -0.877771907	 0.827748986
