30
0  1  0  1  0  1  15  15 -1.82760 -1.68774 -1.74034 -1.88019 -1.81426 -1.85291  1.33323  1.33453  1.33328 -1.81727 -0.73469  2.50091 -0.25471 -3.32878
C	 -4.076946103	 1.285798276	 0.000000000
H	 -4.939455127	 1.945629168	 0.084415981
H	 -3.197380131	 1.922250705	 -0.079894483
C	 -4.004476563	 0.339159477	 1.226129606
H	 -4.861563923	 0.505394536	 1.877997697
H	 -3.111348781	 0.505288618	 1.826133934
C	 -4.058701197	 -1.084379059	 0.650474946
H	 -4.509086972	 -1.800285254	 1.336240282
H	 -3.050567101	 -1.435776360	 0.421240624
C	 -4.834542739	 -0.913729776	 -0.654063769
H	 -5.894161423	 -0.759795908	 -0.436370610
H	 -4.749602637	 -1.768061551	 -1.324152389
C	 -4.228847479	 0.367310273	 -1.226106846
H	 -4.828537173	 0.815934867	 -2.016320470
H	 -3.247984236	 0.139020775	 -1.646797059
C	 0.994679307	 -0.617492160	 -1.046543227
H	 0.109764616	 -1.036095524	 -1.530308804
H	 1.860516688	 -0.897774110	 -1.644409147
C	 0.843857871	 0.903848606	 -0.893213786
H	 0.289725354	 1.346433607	 -1.719266697
H	 1.827674256	 1.372024655	 -0.882611275
C	 0.139004775	 1.115786824	 0.471689582
H	 -0.815697382	 1.628002657	 0.365532382
H	 0.758176443	 1.730633522	 1.123579261
C	 -0.033051378	 -0.290596668	 1.073856837
H	 -1.008618358	 -0.697562298	 0.802050659
H	 0.032687320	 -0.293962561	 2.160580081
C	 1.057441076	 -1.118364519	 0.394991117
H	 0.904452240	 -2.192685142	 0.487803788
H	 2.031453188	 -0.877771907	 0.827748986
