30
0  1  0  1  0  1  15  15 -1.91135 -1.75050 -1.81554 -1.97638 -1.89902 -1.94454  1.43581  1.43365  1.43175 -1.87454 -0.89885  2.80349 -0.27143 -3.50774
C	 -0.163507495	 1.285798276	 -0.000000000
H	 0.699001528	 1.945629168	 -0.084415981
H	 -1.043073468	 1.922250705	 0.079894483
C	 -0.235977036	 0.339159477	 -1.226129606
H	 0.621110324	 0.505394536	 -1.877997697
H	 -1.129104818	 0.505288618	 -1.826133934
C	 -0.181752402	 -1.084379059	 -0.650474946
H	 0.268633373	 -1.800285254	 -1.336240282
H	 -1.189886497	 -1.435776360	 -0.421240624
C	 0.594089141	 -0.913729776	 0.654063769
H	 1.653707824	 -0.759795908	 0.436370610
H	 0.509149039	 -1.768061551	 1.324152389
C	 -0.011606120	 0.367310273	 1.226106846
H	 0.588083574	 0.815934867	 2.016320470
H	 -0.992469363	 0.139020775	 1.646797059
C	 -4.536827722	 1.494646401	 1.103578164
H	 -3.872966746	 0.628004558	 1.080074098
H	 -5.067463194	 1.477367215	 2.054263930
C	 -3.729434857	 2.785190914	 0.895380255
H	 -2.734851566	 2.722021123	 1.333696803
H	 -4.237800142	 3.619298885	 1.378106404
C	 -3.685846420	 3.004750293	 -0.639087283
H	 -2.667744471	 3.008404757	 -1.024503530
H	 -4.125078334	 3.968304770	 -0.894054472
C	 -4.520742122	 1.862825776	 -1.246607500
H	 -3.874854174	 1.019998764	 -1.498999935
H	 -5.042294061	 2.160057330	 -2.154868087
C	 -5.458537909	 1.448438443	 -0.113446313
H	 -5.921145659	 0.475006550	 -0.270318863
H	 -6.256140341	 2.186746840	 -0.001219566
