30
0  1  0  1  0  1  15  15 -1.68355 -1.46369 -1.55939 -1.77925 -1.65498 -1.72801  2.91843  2.91968  2.91687 -1.60941 -1.61711  5.49864 -0.60180 -4.88915
C	 -3.834258761	 1.285798217	 0.000000186
H	 -4.696767785	 1.945629109	 0.084416167
H	 -2.954692789	 1.922250646	 -0.079894297
C	 -3.761789221	 0.339159418	 1.226129792
H	 -4.618876581	 0.505394477	 1.877997883
H	 -2.868661439	 0.505288559	 1.826134120
C	 -3.816013855	 -1.084379118	 0.650475132
H	 -4.266399630	 -1.800285313	 1.336240468
H	 -2.807879759	 -1.435776419	 0.421240810
C	 -4.591855397	 -0.913729835	 -0.654063583
H	 -5.651474081	 -0.759795967	 -0.436370424
H	 -4.506915295	 -1.768061610	 -1.324152203
C	 -3.986160137	 0.367310214	 -1.226106660
H	 -4.585849831	 0.815934808	 -2.016320284
H	 -3.005296894	 0.139020716	 -1.646796873
C	 -0.095797541	 -0.617492160	 -0.864910224
H	 -0.957208166	 -1.036095524	 -0.340434410
H	 -0.180645926	 -0.897774110	 -1.913680351
C	 -0.038421068	 0.903848606	 -0.657630308
H	 -1.030870133	 1.346433607	 -0.590763927
H	 0.462669168	 1.372024655	 -1.504339034
C	 0.791193374	 1.115786824	 0.635242063
H	 0.221907464	 1.628002657	 1.408959784
H	 1.665332231	 1.730633522	 0.424968509
C	 1.226657438	 -0.290596668	 1.085330690
H	 0.503482893	 -0.697562298	 1.794293389
H	 2.200656723	 -0.293962561	 1.571760929
C	 1.183988705	 -1.118364519	 -0.198496338
H	 1.187872419	 -2.192685142	 -0.019597784
H	 2.045774070	 -0.877771907	 -0.825636636
