30
0  1  0  1  0  1  15  15 -1.68944 -1.43766 -1.55855 -1.81034 -1.66757 -1.75186  3.08836  3.08400  3.07985 -1.56492 -1.92741  5.99289 -0.59380 -5.03660
C	 -0.382776860	 1.391809649	 -0.000000225
H	 0.479732163	 2.051640541	 -0.084416206
H	 -1.262342833	 2.028262078	 0.079894258
C	 -0.455246401	 0.445170850	 -1.226129831
H	 0.401840959	 0.611405909	 -1.877997922
H	 -1.348374183	 0.611299991	 -1.826134159
C	 -0.401021767	 -0.978367686	 -0.650475171
H	 0.049364008	 -1.694273881	 -1.336240507
H	 -1.409155862	 -1.329764987	 -0.421240849
C	 0.374819776	 -0.807718403	 0.654063544
H	 1.434438459	 -0.653784535	 0.436370385
H	 0.289879674	 -1.662050178	 1.324152164
C	 -0.230875485	 0.473321646	 1.226106621
H	 0.368814209	 0.921946240	 2.016320245
H	 -1.211738728	 0.245032148	 1.646796834
C	 -4.536827722	 1.494646401	 1.103578164
H	 -3.872966746	 0.628004558	 1.080074098
H	 -5.067463194	 1.477367215	 2.054263930
C	 -3.729434857	 2.785190914	 0.895380255
H	 -2.734851566	 2.722021123	 1.333696803
H	 -4.237800142	 3.619298885	 1.378106404
C	 -3.685846420	 3.004750293	 -0.639087283
H	 -2.667744471	 3.008404757	 -1.024503530
H	 -4.125078334	 3.968304770	 -0.894054472
C	 -4.520742122	 1.862825776	 -1.246607500
H	 -3.874854174	 1.019998764	 -1.498999935
H	 -5.042294061	 2.160057330	 -2.154868087
C	 -5.458537909	 1.448438443	 -0.113446313
H	 -5.921145659	 0.475006550	 -0.270318863
H	 -6.256140341	 2.186746840	 -0.001219566
