30
0  1  0  1  0  1  15  15 -1.71593 -1.47971 -1.57696 -1.81317 -1.67803 -1.75752  3.05983  3.05890  3.05566 -1.60843 -1.74146  5.79320 -0.62026 -5.03991
C	 -3.832016477	 1.285798309	 0.000000225
H	 -4.694525501	 1.945629201	 0.084416206
H	 -2.952450505	 1.922250738	 -0.079894258
C	 -3.759546937	 0.339159510	 1.226129831
H	 -4.616634297	 0.505394569	 1.877997922
H	 -2.866419155	 0.505288651	 1.826134159
C	 -3.813771571	 -1.084379026	 0.650475171
H	 -4.264157346	 -1.800285221	 1.336240507
H	 -2.805637475	 -1.435776327	 0.421240849
C	 -4.589613113	 -0.913729743	 -0.654063544
H	 -5.649231797	 -0.759795875	 -0.436370385
H	 -4.504673011	 -1.768061518	 -1.324152164
C	 -3.983917853	 0.367310306	 -1.226106621
H	 -4.583607547	 0.815934900	 -2.016320245
H	 -3.003054610	 0.139020808	 -1.646796834
C	 0.809579327	 -0.625580399	 -1.103578164
H	 0.145718351	 -1.492222242	 -1.080074098
H	 1.340214800	 -0.642859584	 -2.054263930
C	 0.002186462	 0.664964115	 -0.895380255
H	 -0.992396829	 0.601794323	 -1.333696803
H	 0.510551748	 1.499072085	 -1.378106404
C	 -0.041401973	 0.884523494	 0.639087283
H	 -1.059503924	 0.888177957	 1.024503530
H	 0.397829940	 1.848077971	 0.894054472
C	 0.793493728	 -0.257401023	 1.246607500
H	 0.147605780	 -1.100228036	 1.498999935
H	 1.315045666	 0.039830530	 2.154868087
C	 1.731289514	 -0.671788357	 0.113446313
H	 2.193897264	 -1.645220249	 0.270318863
H	 2.528891946	 0.066520041	 0.001219566
