30
0  1  0  1  0  1  15  15 -1.39352 -1.32577 -1.37847 -1.44622 -1.42382 -1.43701  0.38174  0.38164  0.38107 -1.43167 -0.22261  0.73270 -0.06968 -1.87208
C	 0.253650197	 1.497821038	 0.000000449
H	 1.116159220	 2.157651930	 -0.084415532
H	 -0.625915776	 2.134273467	 0.079894932
C	 0.181180656	 0.551182239	 -1.226129157
H	 1.038268016	 0.717417298	 -1.877997248
H	 -0.711947126	 0.717311380	 -1.826133485
C	 0.235405290	 -0.872356297	 -0.650474497
H	 0.685791065	 -1.588262492	 -1.336239833
H	 -0.772728805	 -1.223753598	 -0.421240175
C	 1.011246833	 -0.701707014	 0.654064218
H	 2.070865516	 -0.547773146	 0.436371059
H	 0.926306731	 -1.556038789	 1.324152838
C	 0.405551572	 0.579333035	 1.226107295
H	 1.005241266	 1.027957629	 2.016320919
H	 -0.575311671	 0.351043537	 1.646797508
C	 -3.705533348	 -2.564174195	 1.103578164
H	 -2.623069008	 -2.422574647	 1.080074098
H	 -3.955886870	 -3.032357588	 2.054263930
C	 -4.419481249	 -1.219679207	 0.895380255
H	 -3.867482959	 -0.389929706	 1.333696803
H	 -5.396022583	 -1.242882473	 1.378106404
C	 -4.587831030	 -1.072150824	 -0.639087283
H	 -4.081944914	 -0.188621440	 -1.024503530
H	 -5.641909642	 -0.970759581	 -0.894054472
C	 -4.016343240	 -2.366153970	 -1.246607500
H	 -2.963489662	 -2.228212105	 -1.498999935
H	 -4.534529286	 -2.669215421	 -2.154868087
C	 -4.126371176	 -3.385502611	 -0.113446313
H	 -3.514658303	 -4.272848621	 -0.270318863
H	 -5.164566220	 -3.707092381	 -0.001219566
