30
0  1  0  1  0  1  15  15 -0.48655 -0.13214 -0.36889 -0.72330 -0.49633 -0.63073  5.80185  5.79574  5.78820 -0.29837 -3.60641 11.16816 -1.12645 -6.73366
C	 -0.592090802	 1.285798159	 0.212022308
H	 0.270418221	 1.945629051	 0.127606327
H	 -1.471656775	 1.922250588	 0.291916791
C	 -0.664560343	 0.339159360	 -1.014107298
H	 0.192527017	 0.505394419	 -1.665975389
H	 -1.557688125	 0.505288501	 -1.614111626
C	 -0.610335709	 -1.084379176	 -0.438452638
H	 -0.159949934	 -1.800285371	 -1.124217974
H	 -1.618469804	 -1.435776477	 -0.209218316
C	 0.165505834	 -0.913729893	 0.866086077
H	 1.225124517	 -0.759796025	 0.648392918
H	 0.080565732	 -1.768061668	 1.536174697
C	 -0.440189427	 0.367310156	 1.438129154
H	 0.159500267	 0.815934750	 2.228342778
H	 -1.421052670	 0.139020658	 1.858819367
C	 -3.576742301	 -0.617492160	 2.985137023
H	 -2.715331676	 -1.036095524	 2.460661209
H	 -3.491893915	 -0.897774110	 4.033907151
C	 -3.634118773	 0.903848606	 2.777857107
H	 -2.641669709	 1.346433607	 2.710990727
H	 -4.135209009	 1.372024655	 3.624565834
C	 -4.463733215	 1.115786824	 1.484984736
H	 -3.894447305	 1.628002657	 0.711267015
H	 -5.337872072	 1.730633522	 1.695258290
C	 -4.899197279	 -0.290596668	 1.034896109
H	 -4.176022734	 -0.697562298	 0.325933411
H	 -5.873196565	 -0.293962561	 0.548465870
C	 -4.856528547	 -1.118364519	 2.318723138
H	 -4.860412260	 -2.192685142	 2.139824583
H	 -5.718313911	 -0.877771907	 2.945863435
