30
0  1  0  1  0  1  15  15 41.01275 42.91089 40.47384 38.57571 40.18047 39.22589 65.88369 65.88614 65.82254 39.15449 -41.60046 121.66598 -12.07003 -28.84099
C	 -1.414980572	 0.649729989	 -0.000001348
H	 -0.552471549	 1.309560881	 -0.084417329
H	 -2.294546545	 1.286182418	 0.079893135
C	 -1.487450113	 -0.296908810	 -1.226130954
H	 -0.630362753	 -0.130673751	 -1.877999045
H	 -2.380577895	 -0.130779669	 -1.826135282
C	 -1.433225479	 -1.720447346	 -0.650476294
H	 -0.982839704	 -2.436353541	 -1.336241630
H	 -2.441359574	 -2.071844647	 -0.421241972
C	 -0.657383936	 -1.549798063	 0.654062421
H	 0.402234747	 -1.395864195	 0.436369262
H	 -0.742324038	 -2.404129838	 1.324151041
C	 -1.263079197	 -0.268758014	 1.226105498
H	 -0.663389503	 0.179866580	 2.016319122
H	 -2.243942440	 -0.497047512	 1.646795711
C	 -3.705533348	 -2.564174195	 1.103578164
H	 -2.623069008	 -2.422574647	 1.080074098
H	 -3.955886870	 -3.032357588	 2.054263930
C	 -4.419481249	 -1.219679207	 0.895380255
H	 -3.867482959	 -0.389929706	 1.333696803
H	 -5.396022583	 -1.242882473	 1.378106404
C	 -4.587831030	 -1.072150824	 -0.639087283
H	 -4.081944914	 -0.188621440	 -1.024503530
H	 -5.641909642	 -0.970759581	 -0.894054472
C	 -4.016343240	 -2.366153970	 -1.246607500
H	 -2.963489662	 -2.228212105	 -1.498999935
H	 -4.534529286	 -2.669215421	 -2.154868087
C	 -4.126371176	 -3.385502611	 -0.113446313
H	 -3.514658303	 -4.272848621	 -0.270318863
H	 -5.164566220	 -3.707092381	 -0.001219566
