30
0  1  0  1  0  1  15  15 -1.66265 -1.57238 -1.60919 -1.69946 -1.66490 -1.68522  0.62725  0.62886  0.62805 -1.68693 -0.34975  1.18948 -0.11712 -2.40954
C	 -4.319633445	 1.285798335	 -0.000000186
H	 -5.182142469	 1.945629227	 0.084415795
H	 -3.440067473	 1.922250764	 -0.079894669
C	 -4.247163905	 0.339159536	 1.226129420
H	 -5.104251265	 0.505394595	 1.877997511
H	 -3.354036123	 0.505288677	 1.826133748
C	 -4.301388539	 -1.084379000	 0.650474760
H	 -4.751774314	 -1.800285195	 1.336240096
H	 -3.293254443	 -1.435776301	 0.421240438
C	 -5.077230081	 -0.913729717	 -0.654063955
H	 -6.136848765	 -0.759795849	 -0.436370796
H	 -4.992289979	 -1.768061492	 -1.324152575
C	 -4.471534821	 0.367310332	 -1.226107032
H	 -5.071224515	 0.815934926	 -2.016320656
H	 -3.490671578	 0.139020834	 -1.646797245
C	 -0.095797541	 -0.617492160	 -0.864910224
H	 -0.957208166	 -1.036095524	 -0.340434410
H	 -0.180645926	 -0.897774110	 -1.913680351
C	 -0.038421068	 0.903848606	 -0.657630308
H	 -1.030870133	 1.346433607	 -0.590763927
H	 0.462669168	 1.372024655	 -1.504339034
C	 0.791193374	 1.115786824	 0.635242063
H	 0.221907464	 1.628002657	 1.408959784
H	 1.665332231	 1.730633522	 0.424968509
C	 1.226657438	 -0.290596668	 1.085330690
H	 0.503482893	 -0.697562298	 1.794293389
H	 2.200656723	 -0.293962561	 1.571760929
C	 1.183988705	 -1.118364519	 -0.198496338
H	 1.187872419	 -2.192685142	 -0.019597784
H	 2.045774070	 -0.877771907	 -0.825636636
