30
0  1  0  1  0  1  15  15 65.57131 68.51597 64.92509 61.98042 64.54757 63.01718 101.35350 101.33903 101.22937 64.14456 -62.97219 180.96676 -13.25873 -40.59128
C	 0.984709668	 -0.835903877	 2.412551643
H	 1.532395451	 -1.222415868	 1.554021827
H	 1.449213956	 -1.258836177	 3.301627095
C	 1.018778912	 0.714450056	 2.416105483
H	 1.538423939	 1.079038219	 1.530549521
H	 1.544087712	 1.115759888	 3.281138663
C	 -0.451622458	 1.158260550	 2.374480740
H	 -0.588439128	 2.120818975	 1.884169005
H	 -0.846912748	 1.245013201	 3.388671233
C	 -1.154277018	 0.003145202	 1.663947392
H	 -0.921052676	 0.029111454	 0.596797046
H	 -2.237835040	 0.022377019	 1.771875664
C	 -0.502830096	 -1.218947782	 2.309911232
H	 -0.662561129	 -2.141079171	 1.753593852
H	 -0.923019904	 -1.359470216	 3.307349462
C	 -1.131779961	 -0.383506064	 5.065335415
H	 -1.464914459	 -0.146807449	 4.052751052
H	 -1.936568361	 -0.926604527	 5.558321918
C	 0.181826490	 -1.179050977	 5.017574217
H	 0.231771431	 -1.836793667	 4.151440395
H	 0.262114110	 -1.810408608	 5.901959509
C	 1.311141712	 -0.116345151	 5.018170311
H	 1.932406667	 -0.177024000	 4.126296692
H	 1.968551204	 -0.266228193	 5.873575481
C	 0.600968343	 1.245323598	 5.126037144
H	 0.421105167	 1.653815383	 4.130038020
H	 1.181352300	 1.979727099	 5.682010412
C	 -0.741084118	 0.910851158	 5.775849004
H	 -1.480752683	 1.703362927	 5.670967703
H	 -0.601044189	 0.719211109	 6.842397963
