30
0  1  0  1  0  1  15  15 -2.65803 -2.23474 -2.48864 -2.91193 -2.67441 -2.81443  4.84114  4.83456  4.82814 -2.50515 -3.03235  9.31623 -0.81699 -7.97203
C	 0.961518432	 -0.882522008	 1.353716945
H	 1.509204215	 -1.269033999	 0.495187129
H	 1.426022720	 -1.305454308	 2.242792397
C	 0.995587676	 0.667831925	 1.357270785
H	 1.515232703	 1.032420088	 0.471714823
H	 1.520896476	 1.069141757	 2.222303965
C	 -0.474813694	 1.111642419	 1.315646042
H	 -0.611630364	 2.074200844	 0.825334307
H	 -0.870103984	 1.198395070	 2.329836535
C	 -1.177468254	 -0.043472929	 0.605112694
H	 -0.944243912	 -0.017506677	 -0.462037652
H	 -2.261026276	 -0.024241112	 0.713040966
C	 -0.526021332	 -1.265565913	 1.251076534
H	 -0.685752365	 -2.187697302	 0.694759154
H	 -0.946211140	 -1.406088347	 2.248514764
C	 -1.131779961	 -0.383506064	 5.065335415
H	 -1.464914459	 -0.146807449	 4.052751052
H	 -1.936568361	 -0.926604527	 5.558321918
C	 0.181826490	 -1.179050977	 5.017574217
H	 0.231771431	 -1.836793667	 4.151440395
H	 0.262114110	 -1.810408608	 5.901959509
C	 1.311141712	 -0.116345151	 5.018170311
H	 1.932406667	 -0.177024000	 4.126296692
H	 1.968551204	 -0.266228193	 5.873575481
C	 0.600968343	 1.245323598	 5.126037144
H	 0.421105167	 1.653815383	 4.130038020
H	 1.181352300	 1.979727099	 5.682010412
C	 -0.741084118	 0.910851158	 5.775849004
H	 -1.480752683	 1.703362927	 5.670967703
H	 -0.601044189	 0.719211109	 6.842397963
