30
0  1  0  1  0  1  15  15 -2.03517 -1.87210 -1.95599 -2.11906 -2.04359 -2.08807  1.54081  1.54206  1.54005 -2.03346 -0.87709  2.94295 -0.30707 -3.79225
C	 -4.076946103	 1.285798276	 0.000000000
H	 -4.939455127	 1.945629168	 0.084415981
H	 -3.197380131	 1.922250705	 -0.079894483
C	 -4.004476563	 0.339159477	 1.226129606
H	 -4.861563923	 0.505394536	 1.877997697
H	 -3.111348781	 0.505288618	 1.826133934
C	 -4.058701197	 -1.084379059	 0.650474946
H	 -4.509086972	 -1.800285254	 1.336240282
H	 -3.050567101	 -1.435776360	 0.421240624
C	 -4.834542739	 -0.913729776	 -0.654063769
H	 -5.894161423	 -0.759795908	 -0.436370610
H	 -4.749602637	 -1.768061551	 -1.324152389
C	 -4.228847479	 0.367310273	 -1.226106846
H	 -4.828537173	 0.815934867	 -2.016320470
H	 -3.247984236	 0.139020775	 -1.646797059
C	 -0.096841957	 -0.443947396	 -1.103578164
H	 -1.179306297	 -0.302347848	 -1.080074098
H	 0.153511566	 -0.912130788	 -2.054263930
C	 0.617105944	 0.900547593	 -0.895380255
H	 0.065107654	 1.730297093	 -1.333696803
H	 1.593647279	 0.877344326	 -1.378106404
C	 0.785455727	 1.048075975	 0.639087283
H	 0.279569609	 1.931605359	 1.024503530
H	 1.839534338	 1.149467219	 0.894054472
C	 0.213967936	 -0.245927170	 1.246607500
H	 -0.838885642	 -0.107985306	 1.498999935
H	 0.732153981	 -0.548988622	 2.154868087
C	 0.323995871	 -1.265275812	 0.113446313
H	 -0.287717002	 -2.152621821	 0.270318863
H	 1.362190915	 -1.586865581	 0.001219566
