30
0  1  0  1  0  1  15  15 -0.28024  0.09790 -0.11287 -0.49101 -0.23989 -0.38861  6.63148  6.62709  6.61869 -0.02910 -3.74707 12.48473 -1.40488 -7.36188
C	 -3.587086852	 1.285798343	 0.000000449
H	 -4.449595876	 1.945629235	 0.084416430
H	 -2.707520880	 1.922250772	 -0.079894034
C	 -3.514617312	 0.339159544	 1.226130055
H	 -4.371704672	 0.505394603	 1.877998146
H	 -2.621489530	 0.505288685	 1.826134383
C	 -3.568841946	 -1.084378992	 0.650475395
H	 -4.019227721	 -1.800285187	 1.336240731
H	 -2.560707850	 -1.435776293	 0.421241073
C	 -4.344683488	 -0.913729709	 -0.654063320
H	 -5.404302172	 -0.759795841	 -0.436370161
H	 -4.259743386	 -1.768061484	 -1.324151940
C	 -3.738988228	 0.367310340	 -1.226106397
H	 -4.338677922	 0.815934934	 -2.016320021
H	 -2.758124985	 0.139020842	 -1.646796610
C	 0.809579327	 -0.625580399	 -1.103578164
H	 0.145718351	 -1.492222242	 -1.080074098
H	 1.340214800	 -0.642859584	 -2.054263930
C	 0.002186462	 0.664964115	 -0.895380255
H	 -0.992396829	 0.601794323	 -1.333696803
H	 0.510551748	 1.499072085	 -1.378106404
C	 -0.041401973	 0.884523494	 0.639087283
H	 -1.059503924	 0.888177957	 1.024503530
H	 0.397829940	 1.848077971	 0.894054472
C	 0.793493728	 -0.257401023	 1.246607500
H	 0.147605780	 -1.100228036	 1.498999935
H	 1.315045666	 0.039830530	 2.154868087
C	 1.731289514	 -0.671788357	 0.113446313
H	 2.193897264	 -1.645220249	 0.270318863
H	 2.528891946	 0.066520041	 0.001219566
