30
0  1  0  1  0  1  15  15 11.71127 12.57816 11.74067 10.87378 11.56447 11.15242 25.41554 25.40841 25.37820 12.02862 -13.60398 46.82773 -6.01016 -15.18496
C	 -3.106196737	 1.285798042	 0.000000744
H	 -3.968705761	 1.945628934	 0.084416725
H	 -2.226630765	 1.922250471	 -0.079893739
C	 -3.033727197	 0.339159243	 1.226130350
H	 -3.890814557	 0.505394302	 1.877998441
H	 -2.140599415	 0.505288384	 1.826134678
C	 -3.087951831	 -1.084379293	 0.650475690
H	 -3.538337606	 -1.800285488	 1.336241026
H	 -2.079817735	 -1.435776594	 0.421241368
C	 -3.863793373	 -0.913730010	 -0.654063025
H	 -4.923412057	 -0.759796142	 -0.436369866
H	 -3.778853271	 -1.768061785	 -1.324151645
C	 -3.258098113	 0.367310039	 -1.226106102
H	 -3.857787807	 0.815934633	 -2.016319726
H	 -2.277234870	 0.139020541	 -1.646796315
C	 -0.095797541	 -0.617492160	 -0.864910224
H	 -0.957208166	 -1.036095524	 -0.340434410
H	 -0.180645926	 -0.897774110	 -1.913680351
C	 -0.038421068	 0.903848606	 -0.657630308
H	 -1.030870133	 1.346433607	 -0.590763927
H	 0.462669168	 1.372024655	 -1.504339034
C	 0.791193374	 1.115786824	 0.635242063
H	 0.221907464	 1.628002657	 1.408959784
H	 1.665332231	 1.730633522	 0.424968509
C	 1.226657438	 -0.290596668	 1.085330690
H	 0.503482893	 -0.697562298	 1.794293389
H	 2.200656723	 -0.293962561	 1.571760929
C	 1.183988705	 -1.118364519	 -0.198496338
H	 1.187872419	 -2.192685142	 -0.019597784
H	 2.045774070	 -0.877771907	 -0.825636636
