30
0  1  0  1  0  1  15  15 -1.70546 -1.60245 -1.64345 -1.74646 -1.70492 -1.72935  0.65844  0.65776  0.65677 -1.71265 -0.41163  1.28898 -0.12179 -2.46822
C	 0.055761870	 1.179786903	 0.000000225
H	 0.918270893	 1.839617795	 -0.084415756
H	 -0.823804103	 1.816239332	 0.079894708
C	 -0.016707671	 0.233148104	 -1.226129381
H	 0.840379689	 0.399383163	 -1.877997472
H	 -0.909835453	 0.399277245	 -1.826133709
C	 0.037516963	 -1.190390432	 -0.650474721
H	 0.487902738	 -1.906296627	 -1.336240057
H	 -0.970617132	 -1.541787733	 -0.421240399
C	 0.813358506	 -1.019741149	 0.654063994
H	 1.872977189	 -0.865807281	 0.436370835
H	 0.728418404	 -1.874072924	 1.324152614
C	 0.207663245	 0.261298900	 1.226107071
H	 0.807352939	 0.709923494	 2.016320695
H	 -0.773199998	 0.033009402	 1.646797284
C	 -4.536827722	 1.494646401	 1.103578164
H	 -3.872966746	 0.628004558	 1.080074098
H	 -5.067463194	 1.477367215	 2.054263930
C	 -3.729434857	 2.785190914	 0.895380255
H	 -2.734851566	 2.722021123	 1.333696803
H	 -4.237800142	 3.619298885	 1.378106404
C	 -3.685846420	 3.004750293	 -0.639087283
H	 -2.667744471	 3.008404757	 -1.024503530
H	 -4.125078334	 3.968304770	 -0.894054472
C	 -4.520742122	 1.862825776	 -1.246607500
H	 -3.874854174	 1.019998764	 -1.498999935
H	 -5.042294061	 2.160057330	 -2.154868087
C	 -5.458537909	 1.448438443	 -0.113446313
H	 -5.921145659	 0.475006550	 -0.270318863
H	 -6.256140341	 2.186746840	 -0.001219566
