30
0  1  0  1  0  1  15  15 -0.36552 -0.01824 -0.21131 -0.55859 -0.32936 -0.46473  6.14632  6.14307  6.13631 -0.15926 -3.40537 11.48824 -1.28579 -6.95635
C	 -3.592881573	 1.285798159	 0.000000521
H	 -4.455390597	 1.945629051	 0.084416502
H	 -2.713315601	 1.922250588	 -0.079893962
C	 -3.520412033	 0.339159360	 1.226130127
H	 -4.377499393	 0.505394419	 1.877998218
H	 -2.627284251	 0.505288501	 1.826134455
C	 -3.574636667	 -1.084379176	 0.650475467
H	 -4.025022442	 -1.800285371	 1.336240803
H	 -2.566502571	 -1.435776477	 0.421241145
C	 -4.350478209	 -0.913729893	 -0.654063248
H	 -5.410096893	 -0.759796025	 -0.436370089
H	 -4.265538107	 -1.768061668	 -1.324151868
C	 -3.744782949	 0.367310156	 -1.226106325
H	 -4.344472643	 0.815934750	 -2.016319949
H	 -2.763919706	 0.139020658	 -1.646796538
C	 0.994679307	 -0.617492160	 -1.046543227
H	 0.109764616	 -1.036095524	 -1.530308804
H	 1.860516688	 -0.897774110	 -1.644409147
C	 0.843857871	 0.903848606	 -0.893213786
H	 0.289725354	 1.346433607	 -1.719266697
H	 1.827674256	 1.372024655	 -0.882611275
C	 0.139004775	 1.115786824	 0.471689582
H	 -0.815697382	 1.628002657	 0.365532382
H	 0.758176443	 1.730633522	 1.123579261
C	 -0.033051378	 -0.290596668	 1.073856837
H	 -1.008618358	 -0.697562298	 0.802050659
H	 0.032687320	 -0.293962561	 2.160580081
C	 1.057441076	 -1.118364519	 0.394991117
H	 0.904452240	 -2.192685142	 0.487803788
H	 2.031453188	 -0.877771907	 0.827748986
