30
0  1  0  1  0  1  15  15 -1.59608 -1.50124 -1.55311 -1.64796 -1.61037 -1.63245  0.64393  0.64360  0.64278 -1.61501 -0.38862  1.24472 -0.11744 -2.35367
C	 0.050784159	 1.285798335	 -0.106011154
H	 0.913293182	 1.945629227	 -0.190427135
H	 -0.828781814	 1.922250764	 -0.026116671
C	 -0.021685382	 0.339159536	 -1.332140760
H	 0.835401978	 0.505394595	 -1.984008851
H	 -0.914813164	 0.505288677	 -1.932145088
C	 0.032539252	 -1.084379000	 -0.756486100
H	 0.482925027	 -1.800285195	 -1.442251436
H	 -0.975594843	 -1.435776301	 -0.527251778
C	 0.808380795	 -0.913729717	 0.548052615
H	 1.867999478	 -0.759795849	 0.330359456
H	 0.723440693	 -1.768061492	 1.218141235
C	 0.202685534	 0.367310332	 1.120095692
H	 0.802375228	 0.815934926	 1.910309316
H	 -0.778177709	 0.139020834	 1.540785905
C	 -3.576742301	 -0.617492160	 2.985137023
H	 -2.715331676	 -1.036095524	 2.460661209
H	 -3.491893915	 -0.897774110	 4.033907151
C	 -3.634118773	 0.903848606	 2.777857107
H	 -2.641669709	 1.346433607	 2.710990727
H	 -4.135209009	 1.372024655	 3.624565834
C	 -4.463733215	 1.115786824	 1.484984736
H	 -3.894447305	 1.628002657	 0.711267015
H	 -5.337872072	 1.730633522	 1.695258290
C	 -4.899197279	 -0.290596668	 1.034896109
H	 -4.176022734	 -0.697562298	 0.325933411
H	 -5.873196565	 -0.293962561	 0.548465870
C	 -4.856528547	 -1.118364519	 2.318723138
H	 -4.860412260	 -2.192685142	 2.139824583
H	 -5.718313911	 -0.877771907	 2.945863435
