30
0  1  0  1  0  1  15  15 -1.78084 -1.63416 -1.71044 -1.85712 -1.78768 -1.82848  1.35600  1.35455  1.35300 -1.76694 -0.83222  2.62922 -0.25394 -3.31000
C	 -0.163507495	 1.285798276	 -0.000000000
H	 0.699001528	 1.945629168	 -0.084415981
H	 -1.043073468	 1.922250705	 0.079894483
C	 -0.235977036	 0.339159477	 -1.226129606
H	 0.621110324	 0.505394536	 -1.877997697
H	 -1.129104818	 0.505288618	 -1.826133934
C	 -0.181752402	 -1.084379059	 -0.650474946
H	 0.268633373	 -1.800285254	 -1.336240282
H	 -1.189886497	 -1.435776360	 -0.421240624
C	 0.594089141	 -0.913729776	 0.654063769
H	 1.653707824	 -0.759795908	 0.436370610
H	 0.509149039	 -1.768061551	 1.324152389
C	 -0.011606120	 0.367310273	 1.226106846
H	 0.588083574	 0.815934867	 2.016320470
H	 -0.992469363	 0.139020775	 1.646797059
C	 -3.576742301	 -0.617492160	 2.985137023
H	 -2.715331676	 -1.036095524	 2.460661209
H	 -3.491893915	 -0.897774110	 4.033907151
C	 -3.634118773	 0.903848606	 2.777857107
H	 -2.641669709	 1.346433607	 2.710990727
H	 -4.135209009	 1.372024655	 3.624565834
C	 -4.463733215	 1.115786824	 1.484984736
H	 -3.894447305	 1.628002657	 0.711267015
H	 -5.337872072	 1.730633522	 1.695258290
C	 -4.899197279	 -0.290596668	 1.034896109
H	 -4.176022734	 -0.697562298	 0.325933411
H	 -5.873196565	 -0.293962561	 0.548465870
C	 -4.856528547	 -1.118364519	 2.318723138
H	 -4.860412260	 -2.192685142	 2.139824583
H	 -5.718313911	 -0.877771907	 2.945863435
