30
0  1  0  1  0  1  15  15 -1.82831 -1.67047 -1.77051 -1.92836 -1.85420 -1.89782  1.52479  1.52341  1.52163 -1.83098 -0.92075  2.94403 -0.28701 -3.56725
C	 -0.163507495	 1.285798276	 -0.000000000
H	 0.699001528	 1.945629168	 -0.084415981
H	 -1.043073468	 1.922250705	 0.079894483
C	 -0.235977036	 0.339159477	 -1.226129606
H	 0.621110324	 0.505394536	 -1.877997697
H	 -1.129104818	 0.505288618	 -1.826133934
C	 -0.181752402	 -1.084379059	 -0.650474946
H	 0.268633373	 -1.800285254	 -1.336240282
H	 -1.189886497	 -1.435776360	 -0.421240624
C	 0.594089141	 -0.913729776	 0.654063769
H	 1.653707824	 -0.759795908	 0.436370610
H	 0.509149039	 -1.768061551	 1.324152389
C	 -0.011606120	 0.367310273	 1.226106846
H	 0.588083574	 0.815934867	 2.016320470
H	 -0.992469363	 0.139020775	 1.646797059
C	 -3.705533348	 -2.564174195	 1.103578164
H	 -2.623069008	 -2.422574647	 1.080074098
H	 -3.955886870	 -3.032357588	 2.054263930
C	 -4.419481249	 -1.219679207	 0.895380255
H	 -3.867482959	 -0.389929706	 1.333696803
H	 -5.396022583	 -1.242882473	 1.378106404
C	 -4.587831030	 -1.072150824	 -0.639087283
H	 -4.081944914	 -0.188621440	 -1.024503530
H	 -5.641909642	 -0.970759581	 -0.894054472
C	 -4.016343240	 -2.366153970	 -1.246607500
H	 -2.963489662	 -2.228212105	 -1.498999935
H	 -4.534529286	 -2.669215421	 -2.154868087
C	 -4.126371176	 -3.385502611	 -0.113446313
H	 -3.514658303	 -4.272848621	 -0.270318863
H	 -5.164566220	 -3.707092381	 -0.001219566
