30
0  1  0  1  0  1  15  15 64.19595 66.32659 63.40682 61.27618 63.12439 62.02270 92.76090 92.75910 92.68043 61.08629 -47.56270 165.95547 -23.43292 -33.87357
C	 -2.694049538	 1.285798029	 0.000001348
H	 -3.556558562	 1.945628921	 0.084417329
H	 -1.814483566	 1.922250458	 -0.079893135
C	 -2.621579998	 0.339159230	 1.226130954
H	 -3.478667358	 0.505394289	 1.877999045
H	 -1.728452216	 0.505288371	 1.826135282
C	 -2.675804632	 -1.084379306	 0.650476294
H	 -3.126190407	 -1.800285501	 1.336241630
H	 -1.667670536	 -1.435776607	 0.421241972
C	 -3.451646174	 -0.913730023	 -0.654062421
H	 -4.511264858	 -0.759796155	 -0.436369262
H	 -3.366706072	 -1.768061798	 -1.324151041
C	 -2.845950914	 0.367310026	 -1.226105498
H	 -3.445640608	 0.815934620	 -2.016319122
H	 -1.865087671	 0.139020528	 -1.646795711
C	 -0.096841957	 -0.443947396	 -1.103578164
H	 -1.179306297	 -0.302347848	 -1.080074098
H	 0.153511566	 -0.912130788	 -2.054263930
C	 0.617105944	 0.900547593	 -0.895380255
H	 0.065107654	 1.730297093	 -1.333696803
H	 1.593647279	 0.877344326	 -1.378106404
C	 0.785455727	 1.048075975	 0.639087283
H	 0.279569609	 1.931605359	 1.024503530
H	 1.839534338	 1.149467219	 0.894054472
C	 0.213967936	 -0.245927170	 1.246607500
H	 -0.838885642	 -0.107985306	 1.498999935
H	 0.732153981	 -0.548988622	 2.154868087
C	 0.323995871	 -1.265275812	 0.113446313
H	 -0.287717002	 -2.152621821	 0.270318863
H	 1.362190915	 -1.586865581	 0.001219566
