30
0  1  0  1  0  1  15  15 11.62787 12.57800 11.67580 10.72567 11.47824 11.03019 25.34453 25.33801 25.30726 11.81534 -15.74448 47.75906 -5.00433 -15.19491
C	 -1.035261618	 1.285798042	 -0.424046402
H	 -0.172752595	 1.945628934	 -0.508462383
H	 -1.914827591	 1.922250471	 -0.344151919
C	 -1.107731159	 0.339159243	 -1.650176008
H	 -0.250643799	 0.505394302	 -2.302044099
H	 -2.000858941	 0.505288384	 -2.250180336
C	 -1.053506525	 -1.084379293	 -1.074521348
H	 -0.603120750	 -1.800285488	 -1.760286684
H	 -2.061640620	 -1.435776594	 -0.845287026
C	 -0.277664982	 -0.913730010	 0.230017367
H	 0.781953701	 -0.759796142	 0.012324208
H	 -0.362605084	 -1.768061785	 0.900105987
C	 -0.883360243	 0.367310039	 0.802060444
H	 -0.283670549	 0.815934633	 1.592274068
H	 -1.864223486	 0.139020541	 1.222750657
C	 -4.753258227	 -0.617492160	 -1.073683573
H	 -3.868343536	 -1.036095524	 -0.589917996
H	 -5.619095607	 -0.897774110	 -0.475817652
C	 -4.602436790	 0.903848606	 -1.227013014
H	 -4.048304274	 1.346433607	 -0.400960102
H	 -5.586253175	 1.372024655	 -1.237615524
C	 -3.897583694	 1.115786824	 -2.591916381
H	 -2.942881537	 1.628002657	 -2.485759182
H	 -4.516755362	 1.730633522	 -3.243806061
C	 -3.725527541	 -0.290596668	 -3.194083637
H	 -2.749960561	 -0.697562298	 -2.922277458
H	 -3.791266240	 -0.293962561	 -4.280806881
C	 -4.816019996	 -1.118364519	 -2.515217916
H	 -4.663031159	 -2.192685142	 -2.608030588
H	 -5.790032107	 -0.877771907	 -2.947975786
