30
0  1  0  1  0  1  15  15 -1.66330 -1.55985 -1.62897 -1.73242 -1.69135 -1.71551  0.76620  0.76596  0.76498 -1.69057 -0.45671  1.47969 -0.14169 -2.57186
C	 0.045071351	 1.391809657	 0.000000225
H	 0.907580374	 2.051640549	 -0.084415756
H	 -0.834494622	 2.028262086	 0.079894708
C	 -0.027398190	 0.445170858	 -1.226129381
H	 0.829689170	 0.611405917	 -1.877997472
H	 -0.920525972	 0.611299999	 -1.826133709
C	 0.026826444	 -0.978367678	 -0.650474721
H	 0.477212219	 -1.694273873	 -1.336240057
H	 -0.981307651	 -1.329764979	 -0.421240399
C	 0.802667987	 -0.807718395	 0.654063994
H	 1.862286670	 -0.653784527	 0.436370835
H	 0.717727885	 -1.662050170	 1.324152614
C	 0.196972726	 0.473321654	 1.226107071
H	 0.796662420	 0.921946248	 2.016320695
H	 -0.783890517	 0.245032156	 1.646797284
C	 -3.705533348	 -2.564174195	 1.103578164
H	 -2.623069008	 -2.422574647	 1.080074098
H	 -3.955886870	 -3.032357588	 2.054263930
C	 -4.419481249	 -1.219679207	 0.895380255
H	 -3.867482959	 -0.389929706	 1.333696803
H	 -5.396022583	 -1.242882473	 1.378106404
C	 -4.587831030	 -1.072150824	 -0.639087283
H	 -4.081944914	 -0.188621440	 -1.024503530
H	 -5.641909642	 -0.970759581	 -0.894054472
C	 -4.016343240	 -2.366153970	 -1.246607500
H	 -2.963489662	 -2.228212105	 -1.498999935
H	 -4.534529286	 -2.669215421	 -2.154868087
C	 -4.126371176	 -3.385502611	 -0.113446313
H	 -3.514658303	 -4.272848621	 -0.270318863
H	 -5.164566220	 -3.707092381	 -0.001219566
