30
0  1  0  1  0  1  15  15 -1.68826 -1.44329 -1.56733 -1.81230 -1.67453 -1.75589  3.01460  3.01161  3.00755 -1.58412 -1.85812  5.83980 -0.58373 -4.98207
C	 -0.381446026	 1.285798217	 -0.106011601
H	 0.481062997	 1.945629109	 -0.190427582
H	 -1.261011999	 1.922250646	 -0.026117118
C	 -0.453915567	 0.339159418	 -1.332141207
H	 0.403171793	 0.505394477	 -1.984009298
H	 -1.347043349	 0.505288559	 -1.932145535
C	 -0.399690933	 -1.084379118	 -0.756486547
H	 0.050694842	 -1.800285313	 -1.442251883
H	 -1.407825028	 -1.435776419	 -0.527252225
C	 0.376150610	 -0.913729835	 0.548052168
H	 1.435769293	 -0.759795967	 0.330359009
H	 0.291210508	 -1.768061610	 1.218140788
C	 -0.229544651	 0.367310214	 1.120095245
H	 0.370145043	 0.815934808	 1.910308869
H	 -1.210407894	 0.139020716	 1.540785458
C	 -4.753258227	 -0.617492160	 -1.073683573
H	 -3.868343536	 -1.036095524	 -0.589917996
H	 -5.619095607	 -0.897774110	 -0.475817652
C	 -4.602436790	 0.903848606	 -1.227013014
H	 -4.048304274	 1.346433607	 -0.400960102
H	 -5.586253175	 1.372024655	 -1.237615524
C	 -3.897583694	 1.115786824	 -2.591916381
H	 -2.942881537	 1.628002657	 -2.485759182
H	 -4.516755362	 1.730633522	 -3.243806061
C	 -3.725527541	 -0.290596668	 -3.194083637
H	 -2.749960561	 -0.697562298	 -2.922277458
H	 -3.791266240	 -0.293962561	 -4.280806881
C	 -4.816019996	 -1.118364519	 -2.515217916
H	 -4.663031159	 -2.192685142	 -2.608030588
H	 -5.790032107	 -0.877771907	 -2.947975786
