30
0  1  0  1  0  1  15  15 -1.38318 -1.32222 -1.34950 -1.41046 -1.39120 -1.40254  0.28228  0.28270  0.28222 -1.41586 -0.15442  0.52708 -0.05064 -1.73788
C	 -4.566805354	 1.285798209	 -0.000000449
H	 -5.429314378	 1.945629101	 0.084415532
H	 -3.687239382	 1.922250638	 -0.079894932
C	 -4.494335814	 0.339159410	 1.226129157
H	 -5.351423174	 0.505394469	 1.877997248
H	 -3.601208032	 0.505288551	 1.826133485
C	 -4.548560448	 -1.084379126	 0.650474497
H	 -4.998946223	 -1.800285321	 1.336239833
H	 -3.540426352	 -1.435776427	 0.421240175
C	 -5.324401990	 -0.913729843	 -0.654064218
H	 -6.384020674	 -0.759795975	 -0.436371059
H	 -5.239461888	 -1.768061618	 -1.324152838
C	 -4.718706730	 0.367310206	 -1.226107295
H	 -5.318396424	 0.815934800	 -2.016320919
H	 -3.737843487	 0.139020708	 -1.646797508
C	 0.809579327	 -0.625580399	 -1.103578164
H	 0.145718351	 -1.492222242	 -1.080074098
H	 1.340214800	 -0.642859584	 -2.054263930
C	 0.002186462	 0.664964115	 -0.895380255
H	 -0.992396829	 0.601794323	 -1.333696803
H	 0.510551748	 1.499072085	 -1.378106404
C	 -0.041401973	 0.884523494	 0.639087283
H	 -1.059503924	 0.888177957	 1.024503530
H	 0.397829940	 1.848077971	 0.894054472
C	 0.793493728	 -0.257401023	 1.246607500
H	 0.147605780	 -1.100228036	 1.498999935
H	 1.315045666	 0.039830530	 2.154868087
C	 1.731289514	 -0.671788357	 0.113446313
H	 2.193897264	 -1.645220249	 0.270318863
H	 2.528891946	 0.066520041	 0.001219566
