30
0  1  0  1  0  1  15  15 -1.84395 -1.59374 -1.72921 -1.97942 -1.84249 -1.92323  3.15941  3.15900  3.15526 -1.77833 -1.80364  6.01937 -0.65636 -5.33770
C	 -3.846463342	 1.285798235	 0.000000225
H	 -4.708972366	 1.945629127	 0.084416206
H	 -2.966897370	 1.922250664	 -0.079894258
C	 -3.773993802	 0.339159436	 1.226129831
H	 -4.631081162	 0.505394495	 1.877997922
H	 -2.880866020	 0.505288577	 1.826134159
C	 -3.828218436	 -1.084379100	 0.650475171
H	 -4.278604211	 -1.800285295	 1.336240507
H	 -2.820084340	 -1.435776401	 0.421240849
C	 -4.604059978	 -0.913729817	 -0.654063544
H	 -5.663678662	 -0.759795949	 -0.436370385
H	 -4.519119876	 -1.768061592	 -1.324152164
C	 -3.998364718	 0.367310232	 -1.226106621
H	 -4.598054412	 0.815934826	 -2.016320245
H	 -3.017501475	 0.139020734	 -1.646796834
C	 -0.096841957	 -0.443947396	 -1.103578164
H	 -1.179306297	 -0.302347848	 -1.080074098
H	 0.153511566	 -0.912130788	 -2.054263930
C	 0.617105944	 0.900547593	 -0.895380255
H	 0.065107654	 1.730297093	 -1.333696803
H	 1.593647279	 0.877344326	 -1.378106404
C	 0.785455727	 1.048075975	 0.639087283
H	 0.279569609	 1.931605359	 1.024503530
H	 1.839534338	 1.149467219	 0.894054472
C	 0.213967936	 -0.245927170	 1.246607500
H	 -0.838885642	 -0.107985306	 1.498999935
H	 0.732153981	 -0.548988622	 2.154868087
C	 0.323995871	 -1.265275812	 0.113446313
H	 -0.287717002	 -2.152621821	 0.270318863
H	 1.362190915	 -1.586865581	 0.001219566
