30
0  1  0  1  0  1  15  15 -1.83164 -1.72451 -1.78483 -1.89196 -1.85096 -1.87518  0.74778  0.74888  0.74766 -1.86212 -0.41939  1.42399 -0.14373 -2.72300
C	 -4.307428864	 1.285798317	 -0.000000225
H	 -5.169937888	 1.945629209	 0.084415756
H	 -3.427862892	 1.922250746	 -0.079894708
C	 -4.234959324	 0.339159518	 1.226129381
H	 -5.092046684	 0.505394577	 1.877997472
H	 -3.341831542	 0.505288659	 1.826133709
C	 -4.289183958	 -1.084379018	 0.650474721
H	 -4.739569733	 -1.800285213	 1.336240057
H	 -3.281049862	 -1.435776319	 0.421240399
C	 -5.065025500	 -0.913729735	 -0.654063994
H	 -6.124644184	 -0.759795867	 -0.436370835
H	 -4.980085398	 -1.768061510	 -1.324152614
C	 -4.459330240	 0.367310314	 -1.226107071
H	 -5.059019934	 0.815934908	 -2.016320695
H	 -3.478466997	 0.139020816	 -1.646797284
C	 -0.096841957	 -0.443947396	 -1.103578164
H	 -1.179306297	 -0.302347848	 -1.080074098
H	 0.153511566	 -0.912130788	 -2.054263930
C	 0.617105944	 0.900547593	 -0.895380255
H	 0.065107654	 1.730297093	 -1.333696803
H	 1.593647279	 0.877344326	 -1.378106404
C	 0.785455727	 1.048075975	 0.639087283
H	 0.279569609	 1.931605359	 1.024503530
H	 1.839534338	 1.149467219	 0.894054472
C	 0.213967936	 -0.245927170	 1.246607500
H	 -0.838885642	 -0.107985306	 1.498999935
H	 0.732153981	 -0.548988622	 2.154868087
C	 0.323995871	 -1.265275812	 0.113446313
H	 -0.287717002	 -2.152621821	 0.270318863
H	 1.362190915	 -1.586865581	 0.001219566
