30
0  1  0  1  0  1  15  15 -1.60221 -1.37488 -1.50358 -1.73092 -1.60444 -1.67895  2.82662  2.82292  2.81963 -1.52164 -1.74826  5.46843 -0.54077 -4.70104
C	 -0.377799149	 1.285798217	 0.106011154
H	 0.484709874	 1.945629109	 0.021595173
H	 -1.257365122	 1.922250646	 0.185905637
C	 -0.450268690	 0.339159418	 -1.120118452
H	 0.406818670	 0.505394477	 -1.771986543
H	 -1.343396472	 0.505288559	 -1.720122780
C	 -0.396044056	 -1.084379118	 -0.544463792
H	 0.054341719	 -1.800285313	 -1.230229128
H	 -1.404178151	 -1.435776419	 -0.315229470
C	 0.379797487	 -0.913729835	 0.760074923
H	 1.439416170	 -0.759795967	 0.542381764
H	 0.294857385	 -1.768061610	 1.430163543
C	 -0.225897774	 0.367310214	 1.332118000
H	 0.373791920	 0.815934808	 2.122331624
H	 -1.206761017	 0.139020716	 1.752808213
C	 -3.576742301	 -0.617492160	 2.985137023
H	 -2.715331676	 -1.036095524	 2.460661209
H	 -3.491893915	 -0.897774110	 4.033907151
C	 -3.634118773	 0.903848606	 2.777857107
H	 -2.641669709	 1.346433607	 2.710990727
H	 -4.135209009	 1.372024655	 3.624565834
C	 -4.463733215	 1.115786824	 1.484984736
H	 -3.894447305	 1.628002657	 0.711267015
H	 -5.337872072	 1.730633522	 1.695258290
C	 -4.899197279	 -0.290596668	 1.034896109
H	 -4.176022734	 -0.697562298	 0.325933411
H	 -5.873196565	 -0.293962561	 0.548465870
C	 -4.856528547	 -1.118364519	 2.318723138
H	 -4.860412260	 -2.192685142	 2.139824583
H	 -5.718313911	 -0.877771907	 2.945863435
