30
0  1  0  1  0  1  15  15 -1.38153 -1.31696 -1.35189 -1.41646 -1.39509 -1.40767  0.30446  0.30450  0.30397 -1.41065 -0.18478  0.59153 -0.05409 -1.76332
C	 0.272369567	 1.285798393	 0.212023201
H	 1.134878590	 1.945629285	 0.127607220
H	 -0.607196406	 1.922250822	 0.291917684
C	 0.199900026	 0.339159594	 -1.014106405
H	 1.056987386	 0.505394653	 -1.665974496
H	 -0.693227756	 0.505288735	 -1.614110733
C	 0.254124660	 -1.084378942	 -0.438451745
H	 0.704510435	 -1.800285137	 -1.124217081
H	 -0.754009435	 -1.435776243	 -0.209217423
C	 1.029966203	 -0.913729659	 0.866086970
H	 2.089584886	 -0.759795791	 0.648393811
H	 0.945026101	 -1.768061434	 1.536175590
C	 0.424270942	 0.367310390	 1.438130047
H	 1.023960636	 0.815934984	 2.228343671
H	 -0.556592301	 0.139020892	 1.858820260
C	 -4.753258227	 -0.617492160	 -1.073683573
H	 -3.868343536	 -1.036095524	 -0.589917996
H	 -5.619095607	 -0.897774110	 -0.475817652
C	 -4.602436790	 0.903848606	 -1.227013014
H	 -4.048304274	 1.346433607	 -0.400960102
H	 -5.586253175	 1.372024655	 -1.237615524
C	 -3.897583694	 1.115786824	 -2.591916381
H	 -2.942881537	 1.628002657	 -2.485759182
H	 -4.516755362	 1.730633522	 -3.243806061
C	 -3.725527541	 -0.290596668	 -3.194083637
H	 -2.749960561	 -0.697562298	 -2.922277458
H	 -3.791266240	 -0.293962561	 -4.280806881
C	 -4.816019996	 -1.118364519	 -2.515217916
H	 -4.663031159	 -2.192685142	 -2.608030588
H	 -5.790032107	 -0.877771907	 -2.947975786
