30
0  1  0  1  0  1  15  15 56.84951 59.00878 56.39750 54.23823 56.11137 54.98434 82.71361 82.70869 82.60410 53.02473 -52.34343 152.04595 -15.88963 -30.78816
C	 -1.449257417	 1.285797925	 0.636066924
H	 -0.586748394	 1.945628817	 0.551650943
H	 -2.328823390	 1.922250354	 0.715961407
C	 -1.521726958	 0.339159126	 -0.590062682
H	 -0.664639598	 0.505394185	 -1.241930773
H	 -2.414854740	 0.505288267	 -1.190067010
C	 -1.467502324	 -1.084379410	 -0.014408022
H	 -1.017116549	 -1.800285605	 -0.700173358
H	 -2.475636419	 -1.435776711	 0.214826300
C	 -0.691660781	 -0.913730127	 1.290130693
H	 0.367957902	 -0.759796259	 1.072437534
H	 -0.776600883	 -1.768061902	 1.960219313
C	 -1.297356042	 0.367309922	 1.862173770
H	 -0.697666348	 0.815934516	 2.652387394
H	 -2.278219285	 0.139020424	 2.282863983
C	 -3.576742301	 -0.617492160	 2.985137023
H	 -2.715331676	 -1.036095524	 2.460661209
H	 -3.491893915	 -0.897774110	 4.033907151
C	 -3.634118773	 0.903848606	 2.777857107
H	 -2.641669709	 1.346433607	 2.710990727
H	 -4.135209009	 1.372024655	 3.624565834
C	 -4.463733215	 1.115786824	 1.484984736
H	 -3.894447305	 1.628002657	 0.711267015
H	 -5.337872072	 1.730633522	 1.695258290
C	 -4.899197279	 -0.290596668	 1.034896109
H	 -4.176022734	 -0.697562298	 0.325933411
H	 -5.873196565	 -0.293962561	 0.548465870
C	 -4.856528547	 -1.118364519	 2.318723138
H	 -4.860412260	 -2.192685142	 2.139824583
H	 -5.718313911	 -0.877771907	 2.945863435
