30
0  1  0  1  0  1  15  15 -1.89143 -1.73395 -1.80331 -1.96079 -1.88561 -1.92991  1.42088  1.41982  1.41784 -1.86511 -0.87582  2.76722 -0.26900 -3.48750
C	 -0.163507495	 1.285798276	 -0.000000000
H	 0.699001528	 1.945629168	 -0.084415981
H	 -1.043073468	 1.922250705	 0.079894483
C	 -0.235977036	 0.339159477	 -1.226129606
H	 0.621110324	 0.505394536	 -1.877997697
H	 -1.129104818	 0.505288618	 -1.826133934
C	 -0.181752402	 -1.084379059	 -0.650474946
H	 0.268633373	 -1.800285254	 -1.336240282
H	 -1.189886497	 -1.435776360	 -0.421240624
C	 0.594089141	 -0.913729776	 0.654063769
H	 1.653707824	 -0.759795908	 0.436370610
H	 0.509149039	 -1.768061551	 1.324152389
C	 -0.011606120	 0.367310273	 1.226106846
H	 0.588083574	 0.815934867	 2.016320470
H	 -0.992469363	 0.139020775	 1.646797059
C	 -4.753258227	 -0.617492160	 -1.073683573
H	 -3.868343536	 -1.036095524	 -0.589917996
H	 -5.619095607	 -0.897774110	 -0.475817652
C	 -4.602436790	 0.903848606	 -1.227013014
H	 -4.048304274	 1.346433607	 -0.400960102
H	 -5.586253175	 1.372024655	 -1.237615524
C	 -3.897583694	 1.115786824	 -2.591916381
H	 -2.942881537	 1.628002657	 -2.485759182
H	 -4.516755362	 1.730633522	 -3.243806061
C	 -3.725527541	 -0.290596668	 -3.194083637
H	 -2.749960561	 -0.697562298	 -2.922277458
H	 -3.791266240	 -0.293962561	 -4.280806881
C	 -4.816019996	 -1.118364519	 -2.515217916
H	 -4.663031159	 -2.192685142	 -2.608030588
H	 -5.790032107	 -0.877771907	 -2.947975786
