30
0  1  0  1  0  1  15  15 65.02858 67.12420 64.26865 62.17304 64.00525 62.91326 92.95273 92.94939 92.87179 61.76078 -47.87834 165.37392 -22.61367 -33.12113
C	 -2.620822054	 1.285797925	 0.000001116
H	 -3.483331078	 1.945628817	 0.084417097
H	 -1.741256082	 1.922250354	 -0.079893367
C	 -2.548352514	 0.339159126	 1.226130722
H	 -3.405439874	 0.505394185	 1.877998813
H	 -1.655224732	 0.505288267	 1.826135050
C	 -2.602577148	 -1.084379410	 0.650476062
H	 -3.052962923	 -1.800285605	 1.336241398
H	 -1.594443052	 -1.435776711	 0.421241740
C	 -3.378418690	 -0.913730127	 -0.654062653
H	 -4.438037374	 -0.759796259	 -0.436369494
H	 -3.293478588	 -1.768061902	 -1.324151273
C	 -2.772723430	 0.367309922	 -1.226105730
H	 -3.372413124	 0.815934516	 -2.016319354
H	 -1.791860187	 0.139020424	 -1.646795943
C	 -0.095797541	 -0.617492160	 -0.864910224
H	 -0.957208166	 -1.036095524	 -0.340434410
H	 -0.180645926	 -0.897774110	 -1.913680351
C	 -0.038421068	 0.903848606	 -0.657630308
H	 -1.030870133	 1.346433607	 -0.590763927
H	 0.462669168	 1.372024655	 -1.504339034
C	 0.791193374	 1.115786824	 0.635242063
H	 0.221907464	 1.628002657	 1.408959784
H	 1.665332231	 1.730633522	 0.424968509
C	 1.226657438	 -0.290596668	 1.085330690
H	 0.503482893	 -0.697562298	 1.794293389
H	 2.200656723	 -0.293962561	 1.571760929
C	 1.183988705	 -1.118364519	 -0.198496338
H	 1.187872419	 -2.192685142	 -0.019597784
H	 2.045774070	 -0.877771907	 -0.825636636
