30
0  1  0  1  0  1  15  15 -1.38722 -1.32165 -1.35287 -1.41844 -1.39636 -1.40935  0.30000  0.29993  0.29939 -1.41273 -0.18442  0.58371 -0.05422 -1.75779
C	 0.275031236	 1.073775529	 0.000000449
H	 1.137540259	 1.733606421	 -0.084415532
H	 -0.604534737	 1.710227958	 0.079894932
C	 0.202561695	 0.127136730	 -1.226129157
H	 1.059649055	 0.293371789	 -1.877997248
H	 -0.690566087	 0.293265871	 -1.826133485
C	 0.256786329	 -1.296401806	 -0.650474497
H	 0.707172104	 -2.012308001	 -1.336239833
H	 -0.751347766	 -1.647799107	 -0.421240175
C	 1.032627872	 -1.125752523	 0.654064218
H	 2.092246555	 -0.971818655	 0.436371059
H	 0.947687770	 -1.980084298	 1.324152838
C	 0.426932611	 0.155287526	 1.226107295
H	 1.026622305	 0.603912120	 2.016320919
H	 -0.553930632	 -0.073001972	 1.646797508
C	 -4.536827722	 1.494646401	 1.103578164
H	 -3.872966746	 0.628004558	 1.080074098
H	 -5.067463194	 1.477367215	 2.054263930
C	 -3.729434857	 2.785190914	 0.895380255
H	 -2.734851566	 2.722021123	 1.333696803
H	 -4.237800142	 3.619298885	 1.378106404
C	 -3.685846420	 3.004750293	 -0.639087283
H	 -2.667744471	 3.008404757	 -1.024503530
H	 -4.125078334	 3.968304770	 -0.894054472
C	 -4.520742122	 1.862825776	 -1.246607500
H	 -3.874854174	 1.019998764	 -1.498999935
H	 -5.042294061	 2.160057330	 -2.154868087
C	 -5.458537909	 1.448438443	 -0.113446313
H	 -5.921145659	 0.475006550	 -0.270318863
H	 -6.256140341	 2.186746840	 -0.001219566
