30
0  1  0  1  0  1  15  15 -1.51696 -1.44658 -1.49561 -1.56600 -1.54389 -1.55697  0.36328  0.36370  0.36300 -1.56020 -0.19689  0.68267 -0.06790 -1.97807
C	 -4.537911625	 1.285798358	 -0.000000449
H	 -5.400420649	 1.945629250	 0.084415532
H	 -3.658345653	 1.922250787	 -0.079894932
C	 -4.465442085	 0.339159559	 1.226129157
H	 -5.322529445	 0.505394618	 1.877997248
H	 -3.572314303	 0.505288700	 1.826133485
C	 -4.519666719	 -1.084378977	 0.650474497
H	 -4.970052494	 -1.800285172	 1.336239833
H	 -3.511532623	 -1.435776278	 0.421240175
C	 -5.295508261	 -0.913729694	 -0.654064218
H	 -6.355126945	 -0.759795826	 -0.436371059
H	 -5.210568159	 -1.768061469	 -1.324152838
C	 -4.689813001	 0.367310355	 -1.226107295
H	 -5.289502695	 0.815934949	 -2.016320919
H	 -3.708949758	 0.139020857	 -1.646797508
C	 -0.096841957	 -0.443947396	 -1.103578164
H	 -1.179306297	 -0.302347848	 -1.080074098
H	 0.153511566	 -0.912130788	 -2.054263930
C	 0.617105944	 0.900547593	 -0.895380255
H	 0.065107654	 1.730297093	 -1.333696803
H	 1.593647279	 0.877344326	 -1.378106404
C	 0.785455727	 1.048075975	 0.639087283
H	 0.279569609	 1.931605359	 1.024503530
H	 1.839534338	 1.149467219	 0.894054472
C	 0.213967936	 -0.245927170	 1.246607500
H	 -0.838885642	 -0.107985306	 1.498999935
H	 0.732153981	 -0.548988622	 2.154868087
C	 0.323995871	 -1.265275812	 0.113446313
H	 -0.287717002	 -2.152621821	 0.270318863
H	 1.362190915	 -1.586865581	 0.001219566
