30
0  1  0  1  0  1  15  15 -0.63466 -0.24762 -0.49318 -0.88022 -0.63614 -0.78094  6.41832  6.41419  6.40543 -0.45920 -3.64254 12.16505 -1.39441 -7.58731
C	 -3.615980581	 1.285798194	 0.000000449
H	 -4.478489605	 1.945629086	 0.084416430
H	 -2.736414609	 1.922250623	 -0.079894034
C	 -3.543511041	 0.339159395	 1.226130055
H	 -4.400598401	 0.505394454	 1.877998146
H	 -2.650383259	 0.505288536	 1.826134383
C	 -3.597735675	 -1.084379141	 0.650475395
H	 -4.048121450	 -1.800285336	 1.336240731
H	 -2.589601579	 -1.435776442	 0.421241073
C	 -4.373577217	 -0.913729858	 -0.654063320
H	 -5.433195901	 -0.759795990	 -0.436370161
H	 -4.288637115	 -1.768061633	 -1.324151940
C	 -3.767881957	 0.367310191	 -1.226106397
H	 -4.367571651	 0.815934785	 -2.016320021
H	 -2.787018714	 0.139020693	 -1.646796610
C	 -0.096841957	 -0.443947396	 -1.103578164
H	 -1.179306297	 -0.302347848	 -1.080074098
H	 0.153511566	 -0.912130788	 -2.054263930
C	 0.617105944	 0.900547593	 -0.895380255
H	 0.065107654	 1.730297093	 -1.333696803
H	 1.593647279	 0.877344326	 -1.378106404
C	 0.785455727	 1.048075975	 0.639087283
H	 0.279569609	 1.931605359	 1.024503530
H	 1.839534338	 1.149467219	 0.894054472
C	 0.213967936	 -0.245927170	 1.246607500
H	 -0.838885642	 -0.107985306	 1.498999935
H	 0.732153981	 -0.548988622	 2.154868087
C	 0.323995871	 -1.265275812	 0.113446313
H	 -0.287717002	 -2.152621821	 0.270318863
H	 1.362190915	 -1.586865581	 0.001219566
