30
0  1  0  1  0  1  15  15 63.38067 65.71296 62.84157 60.50928 62.54802 61.32419 91.11349 91.10523 90.99814 59.18416 -57.00376 166.79957 -17.50763 -33.10403
C	 -1.471138680	 1.285797925	 -0.636069603
H	 -0.608629657	 1.945628817	 -0.720485584
H	 -2.350704653	 1.922250354	 -0.556175120
C	 -1.543608221	 0.339159126	 -1.862199209
H	 -0.686520861	 0.505394185	 -2.514067300
H	 -2.436736003	 0.505288267	 -2.462203537
C	 -1.489383587	 -1.084379410	 -1.286544549
H	 -1.038997812	 -1.800285605	 -1.972309885
H	 -2.497517682	 -1.435776711	 -1.057310227
C	 -0.713542044	 -0.913730127	 0.017994166
H	 0.346076639	 -0.759796259	 -0.199698993
H	 -0.798482146	 -1.768061902	 0.688082786
C	 -1.319237305	 0.367309922	 0.590037243
H	 -0.719547611	 0.815934516	 1.380250867
H	 -2.300100548	 0.139020424	 1.010727456
C	 -4.753258227	 -0.617492160	 -1.073683573
H	 -3.868343536	 -1.036095524	 -0.589917996
H	 -5.619095607	 -0.897774110	 -0.475817652
C	 -4.602436790	 0.903848606	 -1.227013014
H	 -4.048304274	 1.346433607	 -0.400960102
H	 -5.586253175	 1.372024655	 -1.237615524
C	 -3.897583694	 1.115786824	 -2.591916381
H	 -2.942881537	 1.628002657	 -2.485759182
H	 -4.516755362	 1.730633522	 -3.243806061
C	 -3.725527541	 -0.290596668	 -3.194083637
H	 -2.749960561	 -0.697562298	 -2.922277458
H	 -3.791266240	 -0.293962561	 -4.280806881
C	 -4.816019996	 -1.118364519	 -2.515217916
H	 -4.663031159	 -2.192685142	 -2.608030588
H	 -5.790032107	 -0.877771907	 -2.947975786
