27
0  1  0  1  0  1  12  15 -2.18349 -2.05924 -2.53236 -2.65661 -2.58990 -2.62890  0.92066  0.92006  0.91902 -2.30727 -0.89100  2.21016 -0.28220 -3.34423
C	 -0.241658834	 -1.323038383	 -0.098754028
H	 -0.579719324	 -2.350537771	 -0.098943407
C	 -0.131454044	 -0.625566733	 -1.300396651
H	 -0.384722939	 -1.111598517	 -2.232974705
C	 0.306172296	 0.697747389	 -1.300236015
H	 0.390904919	 1.239427276	 -2.232505502
C	 0.634433812	 1.323147727	 -0.098572659
H	 0.973000091	 2.350207607	 -0.098574265
C	 0.524907882	 0.625403283	 1.103289380
H	 0.779056442	 1.110890788	 2.035634584
C	 0.086387006	 -0.697603131	 1.103259559
H	 0.001583786	 -1.239488352	 2.035498564
C	 -3.442837054	 1.164124435	 1.804882681
H	 -2.420362875	 1.001801970	 1.458563360
H	 -3.613301316	 2.238609076	 1.862728306
C	 -4.428593623	 0.452486401	 0.874338004
H	 -4.162123807	 0.557323080	 -0.176149841
H	 -5.423305251	 0.881307887	 1.004225173
C	 -4.425567395	 -1.021987173	 1.342425808
H	 -3.910568604	 -1.661397573	 0.627195103
H	 -5.442252831	 -1.401051781	 1.434848971
C	 -3.699304331	 -1.029484608	 2.706871604
H	 -2.679262862	 -1.393710058	 2.579914909
H	 -4.188530996	 -1.669756395	 3.439112367
C	 -3.650117674	 0.440259654	 3.133070688
H	 -2.870507189	 0.644162124	 3.866064447
H	 -4.607065789	 0.738380189	 3.568404961
