27
0  1  0  1  0  1  12  15 -2.12818 -1.81240 -2.56517 -2.88095 -2.67788 -2.79737  4.02917  4.02477  4.01982 -2.14463 -2.86074  8.09929 -0.80612 -6.57706
C	 -0.644178034	 -1.421611821	 -0.000179495
H	 -0.982238524	 -2.449111209	 -0.000368874
C	 -0.533973244	 -0.724140171	 -1.201822118
H	 -0.787242139	 -1.210171955	 -2.134400172
C	 -0.096346904	 0.599173951	 -1.201661482
H	 -0.011614281	 1.140853838	 -2.133930969
C	 0.231914612	 1.224574289	 0.000001874
H	 0.570480891	 2.251634169	 0.000000268
C	 0.122388682	 0.526829845	 1.201863913
H	 0.376537242	 1.012317350	 2.134209117
C	 -0.316132194	 -0.796176569	 1.201834092
H	 -0.400935414	 -1.338061790	 2.134073097
C	 -4.265571869	 -0.710879754	 0.099121334
H	 -3.267594338	 -0.322130995	 0.310437094
H	 -4.955710277	 0.131376644	 0.063984984
C	 -4.246132615	 -1.521385316	 -1.199632280
H	 -3.643824012	 -1.052587312	 -1.976146532
H	 -5.262819872	 -1.613209577	 -1.584502506
C	 -3.709314121	 -2.914028444	 -0.792743236
H	 -2.693655848	 -3.065965400	 -1.154651801
H	 -4.322316298	 -3.705651522	 -1.221045148
C	 -3.751690467	 -2.947151730	 0.752033017
H	 -2.749572778	 -2.789150136	 1.152106028
H	 -4.115544123	 -3.896544914	 1.141558787
C	 -4.634222221	 -1.759567186	 1.145725579
H	 -4.468861201	 -1.428649664	 2.170322038
H	 -5.689498845	 -2.024591487	 1.044262061
