27
0  1  0  1  0  1  12  15 -2.42008 -2.21241 -2.75193 -2.95959 -2.83932 -2.90979  2.03406  2.03265  2.03044 -2.49885 -1.51974  4.23168 -0.45116 -4.75963
C	 -0.438140487	 -1.323038064	 -0.000179763
H	 -0.776200977	 -2.350537452	 -0.000369142
C	 -0.327935697	 -0.625566414	 -1.201822386
H	 -0.581204592	 -1.111598198	 -2.134400440
C	 0.109690643	 0.697747708	 -1.201661750
H	 0.194423266	 1.239427595	 -2.133931237
C	 0.437952159	 1.323148046	 0.000001606
H	 0.776518438	 2.350207926	 -0.000000000
C	 0.328426229	 0.625403602	 1.201863645
H	 0.582574789	 1.110891107	 2.134208849
C	 -0.110094647	 -0.697602812	 1.201833824
H	 -0.194897867	 -1.239488033	 2.134072829
C	 -4.265571869	 -0.710879754	 0.099121334
H	 -3.267594338	 -0.322130995	 0.310437094
H	 -4.955710277	 0.131376644	 0.063984984
C	 -4.246132615	 -1.521385316	 -1.199632280
H	 -3.643824012	 -1.052587312	 -1.976146532
H	 -5.262819872	 -1.613209577	 -1.584502506
C	 -3.709314121	 -2.914028444	 -0.792743236
H	 -2.693655848	 -3.065965400	 -1.154651801
H	 -4.322316298	 -3.705651522	 -1.221045148
C	 -3.751690467	 -2.947151730	 0.752033017
H	 -2.749572778	 -2.789150136	 1.152106028
H	 -4.115544123	 -3.896544914	 1.141558787
C	 -4.634222221	 -1.759567186	 1.145725579
H	 -4.468861201	 -1.428649664	 2.170322038
H	 -5.689498845	 -2.024591487	 1.044262061
