27
0  1  0  1  0  1  12  15 -2.11975 -1.92195 -2.62371 -2.82152 -2.69611 -2.76942  2.21168  2.20838  2.20646 -2.22088 -1.67996  4.62240 -0.53716 -4.62617
C	 -3.504820137	 -1.323038064	 0.000179763
H	 -3.166759646	 -2.350537452	 0.000369142
C	 -3.615024927	 -0.625566414	 1.201822386
H	 -3.361756031	 -1.111598198	 2.134400440
C	 -4.052651266	 0.697747708	 1.201661750
H	 -4.137383889	 1.239427595	 2.133931237
C	 -4.380912783	 1.323148046	 -0.000001606
H	 -4.719479061	 2.350207926	 0.000000000
C	 -4.271386853	 0.625403602	 -1.201863645
H	 -4.525535412	 1.110891107	 -2.134208849
C	 -3.832865976	 -0.697602812	 -1.201833824
H	 -3.748062757	 -1.239488033	 -2.134072829
C	 -0.420805260	 0.755722109	 -0.099121334
H	 -1.256460326	 0.085822595	 -0.310437094
H	 -0.805151493	 1.774527702	 -0.063984984
C	 0.271393520	 0.333634441	 1.199632280
H	 -0.435751762	 0.046418891	 1.976146532
H	 0.859259292	 1.168199303	 1.584502506
C	 1.209048600	 -0.827585576	 0.792743236
H	 0.832800727	 -1.783139921	 1.154651801
H	 2.201115384	 -0.692521658	 1.221045148
C	 1.258922380	 -0.807448228	 -0.752033017
H	 0.621030142	 -1.596306807	 -1.152106028
H	 2.263047825	 -0.967038310	 -1.141558787
C	 0.671709873	 0.550638963	 -1.145725579
H	 0.302446383	 0.572890880	 -2.170322038
H	 1.428865962	 1.332023177	 -1.044262061
