27
0  1  0  1  0  1  12  15 -3.03022 -2.57250 -4.03923 -4.49695 -4.18848 -4.37005  5.88775  5.88075  5.87310 -2.98983 -4.79966 12.46703 -1.19424 -9.46296
C	 0.774428951	 0.883956427	 1.017311025
H	 1.446359957	 1.695718736	 1.261422885
C	 1.246536094	 -0.427125975	 0.990208026
H	 2.284642266	 -0.632825976	 1.214031484
C	 0.381120726	 -1.472824565	 0.673588691
H	 0.747071379	 -2.490368022	 0.653376164
C	 -0.956049689	 -1.207259523	 0.383198408
H	 -1.627575993	 -2.018848685	 0.138546455
C	 -1.428181603	 0.104117676	 0.409597211
H	 -2.465800825	 0.310014256	 0.184852610
C	 -0.563022998	 1.149736258	 0.727132878
H	 -0.928815859	 2.167422683	 0.747397717
C	 -0.764772305	 -0.729106855	 4.030677055
H	 -0.871026146	 -0.554157695	 2.958370190
H	 -1.416409880	 -1.558370751	 4.303827720
C	 0.704768881	 -0.986169945	 4.374806934
H	 1.199999661	 -1.623754993	 3.644222656
H	 0.768048056	 -1.486383718	 5.342273570
C	 1.344905927	 0.419226729	 4.465759790
H	 1.995174243	 0.611897662	 3.613906866
H	 1.957773110	 0.508396152	 5.361485152
C	 0.165859804	 1.418403747	 4.492631826
H	 0.048708316	 1.877374140	 3.510346488
H	 0.311453394	 2.219908577	 5.215030429
C	 -1.067911961	 0.561308558	 4.788280691
H	 -1.998900471	 1.037046004	 4.482367547
H	 -1.133337724	 0.351987646	 5.858815933
