27
0  1  0  1  0  1  12  15 69.08328 71.61646 65.43159 62.89841 65.17540 63.81046 102.40439 102.40081 102.28571 66.06440 -69.24267 192.50937 -21.43876 -35.76354
C	 -2.148712039	 -1.323036152	 0.000178474
H	 -1.810651548	 -2.350535540	 0.000367853
C	 -2.258916829	 -0.625564502	 1.201821097
H	 -2.005647933	 -1.111596286	 2.134399151
C	 -2.696543168	 0.697749620	 1.201660461
H	 -2.781275791	 1.239429507	 2.133929948
C	 -3.024804685	 1.323149958	 -0.000002895
H	 -3.363370963	 2.350209838	 -0.000001289
C	 -2.915278755	 0.625405514	 -1.201864934
H	 -3.169427314	 1.110893019	 -2.134210138
C	 -2.476757878	 -0.697600900	 -1.201835113
H	 -2.391954659	 -1.239486121	 -2.134074118
C	 0.189719621	 1.164124435	 -0.338280818
H	 -0.621438797	 1.001801970	 -1.050609771
H	 0.325047534	 2.238609076	 -0.219577249
C	 -0.123277422	 0.452486401	 0.980681752
H	 -1.166261491	 0.557323080	 1.275156044
H	 0.486563979	 0.881307887	 1.777183707
C	 0.280585393	 -1.021987173	 0.744017059
H	 -0.596321963	 -1.661397573	 0.655630376
H	 0.868968917	 -1.401051781	 1.578280893
C	 1.099098582	 -1.029484608	 -0.567168102
H	 0.479130124	 -1.393710058	 -1.387071579
H	 1.977851018	 -1.669756395	 -0.509605763
C	 1.443604486	 0.440259654	 -0.822864539
H	 1.688590461	 0.644162124	 -1.864523903
H	 2.299089084	 0.738380189	 -0.211790297
