27
0  1  0  1  0  1  12  15 -2.35271 -2.16484 -2.79886 -2.98673 -2.87660 -2.94118  1.86884  1.86694  1.86479 -2.45540 -1.57858  4.13228 -0.48323 -4.52588
C	 -0.438140487	 -1.323038064	 -0.000179763
H	 -0.776200977	 -2.350537452	 -0.000369142
C	 -0.327935697	 -0.625566414	 -1.201822386
H	 -0.581204592	 -1.111598198	 -2.134400440
C	 0.109690643	 0.697747708	 -1.201661750
H	 0.194423266	 1.239427595	 -2.133931237
C	 0.437952159	 1.323148046	 0.000001606
H	 0.776518438	 2.350207926	 -0.000000000
C	 0.328426229	 0.625403602	 1.201863645
H	 0.582574789	 1.110891107	 2.134208849
C	 -0.110094647	 -0.697602812	 1.201833824
H	 -0.194897867	 -1.239488033	 2.134072829
C	 -3.442837054	 1.164124435	 1.804882681
H	 -2.420362875	 1.001801970	 1.458563360
H	 -3.613301316	 2.238609076	 1.862728306
C	 -4.428593623	 0.452486401	 0.874338004
H	 -4.162123807	 0.557323080	 -0.176149841
H	 -5.423305251	 0.881307887	 1.004225173
C	 -4.425567395	 -1.021987173	 1.342425808
H	 -3.910568604	 -1.661397573	 0.627195103
H	 -5.442252831	 -1.401051781	 1.434848971
C	 -3.699304331	 -1.029484608	 2.706871604
H	 -2.679262862	 -1.393710058	 2.579914909
H	 -4.188530996	 -1.669756395	 3.439112367
C	 -3.650117674	 0.440259654	 3.133070688
H	 -2.870507189	 0.644162124	 3.866064447
H	 -4.607065789	 0.738380189	 3.568404961
