27
0  1  0  1  0  1  12  15 -1.70620 -1.63655 -1.97041 -2.04006 -2.00511 -2.02532  0.30414  0.30386  0.30384 -1.82174 -0.47991  0.98753 -0.15261 -2.17675
C	 -0.041413025	 -1.520186680	 -0.000180299
H	 -0.379473515	 -2.547686068	 -0.000369678
C	 0.068791765	 -0.822715030	 -1.201822922
H	 -0.184477130	 -1.308746814	 -2.134400976
C	 0.506418105	 0.500599092	 -1.201662286
H	 0.591150728	 1.042278979	 -2.133931773
C	 0.834679621	 1.125999430	 0.000001070
H	 1.173245900	 2.153059310	 -0.000000536
C	 0.725153691	 0.428254986	 1.201863109
H	 0.979302251	 0.913742491	 2.134208313
C	 0.286632815	 -0.894751428	 1.201833288
H	 0.201829595	 -1.436636649	 2.134072293
C	 -2.947977589	 2.727202421	 0.099121334
H	 -2.112322523	 2.057302906	 0.310437094
H	 -2.563631356	 3.746008013	 0.063984984
C	 -3.640176369	 2.305114752	 -1.199632280
H	 -2.933031087	 2.017899203	 -1.976146532
H	 -4.228042140	 3.139679614	 -1.584502506
C	 -4.577831449	 1.143894735	 -0.792743236
H	 -4.201583576	 0.188340391	 -1.154651801
H	 -5.569898234	 1.278958654	 -1.221045148
C	 -4.627705230	 1.164032084	 0.752033017
H	 -3.989812991	 0.375173505	 1.152106028
H	 -5.631830673	 1.004442002	 1.141558787
C	 -4.040492722	 2.522119275	 1.145725579
H	 -3.671229232	 2.544371192	 2.170322038
H	 -4.797648811	 3.303503489	 1.044262061
