27
0  1  0  1  0  1  12  15 12.70122 14.06208 10.24877  8.88791 10.00922  9.35388 34.20548 34.20130 34.18451 13.52210 -24.89254 66.61494 -5.72295 -22.47735
C	 0.801079427	 0.931092727	 1.606271244
H	 1.473010433	 1.742855036	 1.850383104
C	 1.273186570	 -0.379989675	 1.579168245
H	 2.311292742	 -0.585689676	 1.802991703
C	 0.407771202	 -1.425688265	 1.262548910
H	 0.773721855	 -2.443231722	 1.242336383
C	 -0.929399213	 -1.160123223	 0.972158627
H	 -1.600925517	 -1.971712385	 0.727506674
C	 -1.401531127	 0.151253976	 0.998557430
H	 -2.439150349	 0.357150556	 0.773812829
C	 -0.536372522	 1.196872558	 1.316093097
H	 -0.902165383	 2.214558983	 1.336357936
C	 -0.764772305	 -0.729106855	 4.030677055
H	 -0.871026146	 -0.554157695	 2.958370190
H	 -1.416409880	 -1.558370751	 4.303827720
C	 0.704768881	 -0.986169945	 4.374806934
H	 1.199999661	 -1.623754993	 3.644222656
H	 0.768048056	 -1.486383718	 5.342273570
C	 1.344905927	 0.419226729	 4.465759790
H	 1.995174243	 0.611897662	 3.613906866
H	 1.957773110	 0.508396152	 5.361485152
C	 0.165859804	 1.418403747	 4.492631826
H	 0.048708316	 1.877374140	 3.510346488
H	 0.311453394	 2.219908577	 5.215030429
C	 -1.067911961	 0.561308558	 4.788280691
H	 -1.998900471	 1.037046004	 4.482367547
H	 -1.133337724	 0.351987646	 5.858815933
