27
0  1  0  1  0  1  12  15 -2.13143 -2.00981 -2.47041 -2.59202 -2.52219 -2.56307  0.93627  0.93625  0.93503 -2.22965 -0.87084  2.17500 -0.28342 -3.25038
C	 -3.730838153	 -1.323038383	 0.000179978
H	 -3.392777662	 -2.350537771	 0.000369357
C	 -3.841042943	 -0.625566733	 1.201822601
H	 -3.587774047	 -1.111598517	 2.134400655
C	 -4.278669282	 0.697747389	 1.201661965
H	 -4.363401905	 1.239427276	 2.133931452
C	 -4.606930799	 1.323147727	 -0.000001391
H	 -4.945497077	 2.350207607	 0.000000215
C	 -4.497404869	 0.625403283	 -1.201863430
H	 -4.751553428	 1.110890788	 -2.134208634
C	 -4.058883992	 -0.697603131	 -1.201833609
H	 -3.974080773	 -1.239488352	 -2.134072614
C	 0.189719621	 1.164124435	 -0.338280818
H	 -0.621438797	 1.001801970	 -1.050609771
H	 0.325047534	 2.238609076	 -0.219577249
C	 -0.123277422	 0.452486401	 0.980681752
H	 -1.166261491	 0.557323080	 1.275156044
H	 0.486563979	 0.881307887	 1.777183707
C	 0.280585393	 -1.021987173	 0.744017059
H	 -0.596321963	 -1.661397573	 0.655630376
H	 0.868968917	 -1.401051781	 1.578280893
C	 1.099098582	 -1.029484608	 -0.567168102
H	 0.479130124	 -1.393710058	 -1.387071579
H	 1.977851018	 -1.669756395	 -0.509605763
C	 1.443604486	 0.440259654	 -0.822864539
H	 1.688590461	 0.644162124	 -1.864523903
H	 2.299089084	 0.738380189	 -0.211790297
