27
0  1  0  1  0  1  12  15 11.65473 12.72642  9.79986  8.72818  9.61393  9.09378 28.62214 28.62021 28.60106 11.94654 -20.06599 56.23433 -6.35773 -17.86406
C	 -2.647663597	 -1.323036789	 0.000178767
H	 -2.309603106	 -2.350536177	 0.000368146
C	 -2.757868387	 -0.625565139	 1.201821390
H	 -2.504599491	 -1.111596923	 2.134399444
C	 -3.195494726	 0.697748983	 1.201660754
H	 -3.280227349	 1.239428870	 2.133930241
C	 -3.523756243	 1.323149321	 -0.000002602
H	 -3.862322521	 2.350209201	 -0.000000996
C	 -3.414230313	 0.625404877	 -1.201864641
H	 -3.668378872	 1.110892382	 -2.134209845
C	 -2.975709436	 -0.697601537	 -1.201834820
H	 -2.890906217	 -1.239486758	 -2.134073825
C	 -0.143973938	 1.164124435	 0.166597631
H	 -1.166448116	 1.001801970	 0.512916951
H	 0.026490325	 2.238609076	 0.108752005
C	 0.841782633	 0.452486401	 1.097142307
H	 0.575312816	 0.557323080	 2.147630152
H	 1.836494260	 0.881307887	 0.967255139
C	 0.838756404	 -1.021987173	 0.629054503
H	 0.323757613	 -1.661397573	 1.344285209
H	 1.855441840	 -1.401051781	 0.536631341
C	 0.112493340	 -1.029484608	 -0.735391292
H	 -0.907548129	 -1.393710058	 -0.608434597
H	 0.601720006	 -1.669756395	 -1.467632056
C	 0.063306682	 0.440259654	 -1.161590376
H	 -0.716303802	 0.644162124	 -1.894584136
H	 1.020254798	 0.738380189	 -1.596924649
