27
0  1  0  1  0  1  12  15 -2.98896 -2.83862 -3.47023 -3.62056 -3.54045 -3.58721  0.81455  0.81552  0.81447 -3.16024 -0.96269  2.19356 -0.27956 -4.11155
C	 0.747778475	 0.836820127	 0.428350806
H	 1.419709481	 1.648582436	 0.672462666
C	 1.219885618	 -0.474262275	 0.401247807
H	 2.257991790	 -0.679962276	 0.625071265
C	 0.354470250	 -1.519960865	 0.084628472
H	 0.720420903	 -2.537504322	 0.064415945
C	 -0.982700165	 -1.254395823	 -0.205761811
H	 -1.654226469	 -2.065984985	 -0.450413764
C	 -1.454832079	 0.056981376	 -0.179363008
H	 -2.492451301	 0.262877956	 -0.404107609
C	 -0.589673474	 1.102599958	 0.138172659
H	 -0.955466335	 2.120286383	 0.158437498
C	 -0.764772305	 -0.729106855	 4.030677055
H	 -0.871026146	 -0.554157695	 2.958370190
H	 -1.416409880	 -1.558370751	 4.303827720
C	 0.704768881	 -0.986169945	 4.374806934
H	 1.199999661	 -1.623754993	 3.644222656
H	 0.768048056	 -1.486383718	 5.342273570
C	 1.344905927	 0.419226729	 4.465759790
H	 1.995174243	 0.611897662	 3.613906866
H	 1.957773110	 0.508396152	 5.361485152
C	 0.165859804	 1.418403747	 4.492631826
H	 0.048708316	 1.877374140	 3.510346488
H	 0.311453394	 2.219908577	 5.215030429
C	 -1.067911961	 0.561308558	 4.788280691
H	 -1.998900471	 1.037046004	 4.482367547
H	 -1.133337724	 0.351987646	 5.858815933
