27
0  1  0  1  0  1  12  15 -2.11922 -1.79650 -2.81954 -3.14226 -2.92614 -3.05319  4.37632  4.37163  4.36663 -2.12268 -3.37068  9.16244 -1.02654 -6.88789
C	 -3.290531002	 -1.323037745	 0.000179514
H	 -2.952470511	 -2.350537133	 0.000368893
C	 -3.400735792	 -0.625566095	 1.201822137
H	 -3.147466896	 -1.111597879	 2.134400191
C	 -3.838362131	 0.697748027	 1.201661501
H	 -3.923094754	 1.239427914	 2.133930988
C	 -4.166623648	 1.323148365	 -0.000001855
H	 -4.505189926	 2.350208245	 -0.000000249
C	 -4.057097718	 0.625403921	 -1.201863894
H	 -4.311246277	 1.110891426	 -2.134209098
C	 -3.618576841	 -0.697602493	 -1.201834073
H	 -3.533773622	 -1.239487714	 -2.134073078
C	 -0.143973938	 1.164124435	 0.166597631
H	 -1.166448116	 1.001801970	 0.512916951
H	 0.026490325	 2.238609076	 0.108752005
C	 0.841782633	 0.452486401	 1.097142307
H	 0.575312816	 0.557323080	 2.147630152
H	 1.836494260	 0.881307887	 0.967255139
C	 0.838756404	 -1.021987173	 0.629054503
H	 0.323757613	 -1.661397573	 1.344285209
H	 1.855441840	 -1.401051781	 0.536631341
C	 0.112493340	 -1.029484608	 -0.735391292
H	 -0.907548129	 -1.393710058	 -0.608434597
H	 0.601720006	 -1.669756395	 -1.467632056
C	 0.063306682	 0.440259654	 -1.161590376
H	 -0.716303802	 0.644162124	 -1.894584136
H	 1.020254798	 0.738380189	 -1.596924649
