27
0  1  0  1  0  1  12  15 13.27736 14.32216 11.58308 10.53828 11.41862 10.90212 29.78791 29.78584 29.76793 13.73441 -20.26851 57.18661 -6.04765 -17.13604
C	 -2.600748072	 -1.323036789	 0.000178904
H	 -2.262687581	 -2.350536177	 0.000368283
C	 -2.710952862	 -0.625565139	 1.201821527
H	 -2.457683966	 -1.111596923	 2.134399581
C	 -3.148579201	 0.697748983	 1.201660891
H	 -3.233311824	 1.239428870	 2.133930378
C	 -3.476840718	 1.323149321	 -0.000002465
H	 -3.815406996	 2.350209201	 -0.000000859
C	 -3.367314788	 0.625404877	 -1.201864504
H	 -3.621463347	 1.110892382	 -2.134209708
C	 -2.928793911	 -0.697601537	 -1.201834683
H	 -2.843990692	 -1.239486758	 -2.134073688
C	 0.189719621	 1.164124435	 -0.338280818
H	 -0.621438797	 1.001801970	 -1.050609771
H	 0.325047534	 2.238609076	 -0.219577249
C	 -0.123277422	 0.452486401	 0.980681752
H	 -1.166261491	 0.557323080	 1.275156044
H	 0.486563979	 0.881307887	 1.777183707
C	 0.280585393	 -1.021987173	 0.744017059
H	 -0.596321963	 -1.661397573	 0.655630376
H	 0.868968917	 -1.401051781	 1.578280893
C	 1.099098582	 -1.029484608	 -0.567168102
H	 0.479130124	 -1.393710058	 -1.387071579
H	 1.977851018	 -1.669756395	 -0.509605763
C	 1.443604486	 0.440259654	 -0.822864539
H	 1.688590461	 0.644162124	 -1.864523903
H	 2.299089084	 0.738380189	 -0.211790297
