27
0  1  0  1  0  1  12  15 -2.55923 -2.34826 -2.95711 -3.16808 -3.04183 -3.11567  2.08166  2.08097  2.07895 -2.62756 -1.62741  4.37794 -0.45481 -4.92328
C	 -0.438140487	 -1.323038064	 -0.000179763
H	 -0.776200977	 -2.350537452	 -0.000369142
C	 -0.327935697	 -0.625566414	 -1.201822386
H	 -0.581204592	 -1.111598198	 -2.134400440
C	 0.109690643	 0.697747708	 -1.201661750
H	 0.194423266	 1.239427595	 -2.133931237
C	 0.437952159	 1.323148046	 0.000001606
H	 0.776518438	 2.350207926	 -0.000000000
C	 0.328426229	 0.625403602	 1.201863645
H	 0.582574789	 1.110891107	 2.134208849
C	 -0.110094647	 -0.697602812	 1.201833824
H	 -0.194897867	 -1.239488033	 2.134072829
C	 -3.633411691	 1.164124435	 -1.633199494
H	 -2.822253272	 1.001801970	 -0.920870541
H	 -3.768739603	 2.238609076	 -1.751903063
C	 -3.320414646	 0.452486401	 -2.952162064
H	 -2.277430578	 0.557323080	 -3.246636356
H	 -3.930256048	 0.881307887	 -3.748664018
C	 -3.724277462	 -1.021987173	 -2.715497371
H	 -2.847370106	 -1.661397573	 -2.627110688
H	 -4.312660986	 -1.401051781	 -3.549761205
C	 -4.542790651	 -1.029484608	 -1.404312210
H	 -3.922822193	 -1.393710058	 -0.584408732
H	 -5.421543086	 -1.669756395	 -1.461874549
C	 -4.887296556	 0.440259654	 -1.148615773
H	 -5.132282530	 0.644162124	 -0.106956409
H	 -5.742781153	 0.738380189	 -1.759690015
