27
0  1  0  1  0  1  12  15 -0.77516 -0.28692 -1.47657 -1.96480 -1.61475 -1.82110  8.12304  8.11697  8.10755 -0.59025 -5.63550 15.86129 -1.42455 -9.39149
C	 -0.840249664	 -1.323037427	 -0.197327365
H	 -1.178310154	 -2.350536815	 -0.197516744
C	 -0.730044874	 -0.625565777	 -1.398969988
H	 -0.983313769	 -1.111597561	 -2.331548042
C	 -0.292418534	 0.697748345	 -1.398809352
H	 -0.207685911	 1.239428232	 -2.331078839
C	 0.035842982	 1.323148683	 -0.197145996
H	 0.374409261	 2.350208563	 -0.197147602
C	 -0.073682948	 0.625404239	 1.004716043
H	 0.180465612	 1.110891744	 1.937061247
C	 -0.512203824	 -0.697602175	 1.004686222
H	 -0.597007044	 -1.239487396	 1.936925227
C	 -3.633411691	 1.164124435	 -1.633199494
H	 -2.822253272	 1.001801970	 -0.920870541
H	 -3.768739603	 2.238609076	 -1.751903063
C	 -3.320414646	 0.452486401	 -2.952162064
H	 -2.277430578	 0.557323080	 -3.246636356
H	 -3.930256048	 0.881307887	 -3.748664018
C	 -3.724277462	 -1.021987173	 -2.715497371
H	 -2.847370106	 -1.661397573	 -2.627110688
H	 -4.312660986	 -1.401051781	 -3.549761205
C	 -4.542790651	 -1.029484608	 -1.404312210
H	 -3.922822193	 -1.393710058	 -0.584408732
H	 -5.421543086	 -1.669756395	 -1.461874549
C	 -4.887296556	 0.440259654	 -1.148615773
H	 -5.132282530	 0.644162124	 -0.106956409
H	 -5.742781153	 0.738380189	 -1.759690015
