27
0  1  0  1  0  1  12  15 -2.40738 -2.26411 -2.81688 -2.96015 -2.87873 -2.92650  1.09164  1.09123  1.08957 -2.53402 -1.05025  2.60633 -0.33291 -3.75718
C	 -3.719109272	 -1.323038383	 0.000180012
H	 -3.381048781	 -2.350537771	 0.000369391
C	 -3.829314062	 -0.625566733	 1.201822635
H	 -3.576045166	 -1.111598517	 2.134400689
C	 -4.266940401	 0.697747389	 1.201661999
H	 -4.351673024	 1.239427276	 2.133931486
C	 -4.595201918	 1.323147727	 -0.000001357
H	 -4.933768196	 2.350207607	 0.000000249
C	 -4.485675988	 0.625403283	 -1.201863396
H	 -4.739824547	 1.110890788	 -2.134208600
C	 -4.047155111	 -0.697603131	 -1.201833575
H	 -3.962351892	 -1.239488352	 -2.134072580
C	 -0.143973938	 1.164124435	 0.166597631
H	 -1.166448116	 1.001801970	 0.512916951
H	 0.026490325	 2.238609076	 0.108752005
C	 0.841782633	 0.452486401	 1.097142307
H	 0.575312816	 0.557323080	 2.147630152
H	 1.836494260	 0.881307887	 0.967255139
C	 0.838756404	 -1.021987173	 0.629054503
H	 0.323757613	 -1.661397573	 1.344285209
H	 1.855441840	 -1.401051781	 0.536631341
C	 0.112493340	 -1.029484608	 -0.735391292
H	 -0.907548129	 -1.393710058	 -0.608434597
H	 0.601720006	 -1.669756395	 -1.467632056
C	 0.063306682	 0.440259654	 -1.161590376
H	 -0.716303802	 0.644162124	 -1.894584136
H	 1.020254798	 0.738380189	 -1.596924649
