27
0  1  0  1  0  1  12  15 12.57675 13.71495 11.18889 10.05069 10.98604 10.43272 29.89467 29.88400 29.85421 13.17139 -19.62295 55.72423 -4.57157 -18.35832
C	 -1.242358841	 -1.323036789	 -0.394474966
H	 -1.580419331	 -2.350536177	 -0.394664345
C	 -1.132154051	 -0.625565139	 -1.596117589
H	 -1.385422946	 -1.111596923	 -2.528695643
C	 -0.694527711	 0.697748983	 -1.595956953
H	 -0.609795088	 1.239428870	 -2.528226440
C	 -0.366266195	 1.323149321	 -0.394293597
H	 -0.027699916	 2.350209201	 -0.394295203
C	 -0.475792125	 0.625404877	 0.807568442
H	 -0.221643565	 1.110892382	 1.739913646
C	 -0.914313001	 -0.697601537	 0.807538621
H	 -0.999116221	 -1.239486758	 1.739777626
C	 -3.633411691	 1.164124435	 -1.633199494
H	 -2.822253272	 1.001801970	 -0.920870541
H	 -3.768739603	 2.238609076	 -1.751903063
C	 -3.320414646	 0.452486401	 -2.952162064
H	 -2.277430578	 0.557323080	 -3.246636356
H	 -3.930256048	 0.881307887	 -3.748664018
C	 -3.724277462	 -1.021987173	 -2.715497371
H	 -2.847370106	 -1.661397573	 -2.627110688
H	 -4.312660986	 -1.401051781	 -3.549761205
C	 -4.542790651	 -1.029484608	 -1.404312210
H	 -3.922822193	 -1.393710058	 -0.584408732
H	 -5.421543086	 -1.669756395	 -1.461874549
C	 -4.887296556	 0.440259654	 -1.148615773
H	 -5.132282530	 0.644162124	 -0.106956409
H	 -5.742781153	 0.738380189	 -1.759690015
