27
0  1  0  1  0  1  12  15 -2.04632 -1.93109 -2.35253 -2.46776 -2.40291 -2.44094  0.81249  0.81213  0.81084 -2.13577 -0.87516  2.04727 -0.26372 -3.04416
C	 -3.730035941	 -1.323038322	 0.000180031
H	 -3.391975450	 -2.350537710	 0.000369410
C	 -3.840240731	 -0.625566672	 1.201822654
H	 -3.586971835	 -1.111598456	 2.134400708
C	 -4.277867070	 0.697747450	 1.201662018
H	 -4.362599693	 1.239427337	 2.133931505
C	 -4.606128587	 1.323147788	 -0.000001338
H	 -4.944694865	 2.350207668	 0.000000268
C	 -4.496602657	 0.625403344	 -1.201863377
H	 -4.750751216	 1.110890849	 -2.134208581
C	 -4.058081780	 -0.697603070	 -1.201833556
H	 -3.973278561	 -1.239488291	 -2.134072561
C	 0.706176400	 1.260600558	 -0.099121334
H	 -0.291801131	 1.649349317	 -0.310437094
H	 1.396314808	 2.102856956	 -0.063984984
C	 0.686737146	 0.450094996	 1.199632280
H	 0.084428543	 0.918892999	 1.976146532
H	 1.703424404	 0.358270735	 1.584502506
C	 0.149918652	 -0.942548132	 0.792743236
H	 -0.865739621	 -1.094485088	 1.154651801
H	 0.762920828	 -1.734171210	 1.221045148
C	 0.192294997	 -0.975671418	 -0.752033017
H	 -0.809822691	 -0.817669825	 -1.152106028
H	 0.556148655	 -1.925064603	 -1.141558787
C	 1.074826752	 0.211913126	 -1.145725579
H	 0.909465732	 0.542830647	 -2.170322038
H	 2.130103376	 -0.053111175	 -1.044262061
