27
0  1  0  1  0  1  12  15 -1.80315 -1.55511 -2.39115 -2.63919 -2.47367 -2.57002  3.40906  3.40566  3.40409 -1.82773 -2.77751  7.32167 -0.85353 -5.51835
C	 -0.636504218	 -1.224463756	 -0.000179495
H	 -0.974564708	 -2.251963144	 -0.000368874
C	 -0.526299428	 -0.526992106	 -1.201822118
H	 -0.779568323	 -1.013023890	 -2.134400172
C	 -0.088673088	 0.796322016	 -1.201661482
H	 -0.003940465	 1.338001903	 -2.133930969
C	 0.239588428	 1.421722354	 0.000001874
H	 0.578154707	 2.448782234	 0.000000268
C	 0.130062498	 0.723977910	 1.201863913
H	 0.384211058	 1.209465415	 2.134209117
C	 -0.308458378	 -0.599028504	 1.201834092
H	 -0.393261598	 -1.140913725	 2.134073097
C	 -2.947977589	 2.727202421	 0.099121334
H	 -2.112322523	 2.057302906	 0.310437094
H	 -2.563631356	 3.746008013	 0.063984984
C	 -3.640176369	 2.305114752	 -1.199632280
H	 -2.933031087	 2.017899203	 -1.976146532
H	 -4.228042140	 3.139679614	 -1.584502506
C	 -4.577831449	 1.143894735	 -0.792743236
H	 -4.201583576	 0.188340391	 -1.154651801
H	 -5.569898234	 1.278958654	 -1.221045148
C	 -4.627705230	 1.164032084	 0.752033017
H	 -3.989812991	 0.375173505	 1.152106028
H	 -5.631830673	 1.004442002	 1.141558787
C	 -4.040492722	 2.522119275	 1.145725579
H	 -3.671229232	 2.544371192	 2.170322038
H	 -4.797648811	 3.303503489	 1.044262061
