27
0  1  0  1  0  1  12  15 -0.96413 -0.54534 -1.74994 -2.16873 -1.87563 -2.04733  6.97561  6.97255  6.96722 -0.89427 -5.12930 14.17806 -1.49753 -8.44551
C	 -0.831103794	 -1.323037427	 0.196968766
H	 -1.169164284	 -2.350536815	 0.196779387
C	 -0.720899004	 -0.625565777	 -1.004673857
H	 -0.974167899	 -1.111597561	 -1.937251911
C	 -0.283272664	 0.697748345	 -1.004513221
H	 -0.198540041	 1.239428232	 -1.936782708
C	 0.044988852	 1.323148683	 0.197150135
H	 0.383555131	 2.350208563	 0.197148529
C	 -0.064537078	 0.625404239	 1.399012174
H	 0.189611482	 1.110891744	 2.331357378
C	 -0.503057954	 -0.697602175	 1.398982353
H	 -0.587861174	 -1.239487396	 2.331221358
C	 -3.442837054	 1.164124435	 1.804882681
H	 -2.420362875	 1.001801970	 1.458563360
H	 -3.613301316	 2.238609076	 1.862728306
C	 -4.428593623	 0.452486401	 0.874338004
H	 -4.162123807	 0.557323080	 -0.176149841
H	 -5.423305251	 0.881307887	 1.004225173
C	 -4.425567395	 -1.021987173	 1.342425808
H	 -3.910568604	 -1.661397573	 0.627195103
H	 -5.442252831	 -1.401051781	 1.434848971
C	 -3.699304331	 -1.029484608	 2.706871604
H	 -2.679262862	 -1.393710058	 2.579914909
H	 -4.188530996	 -1.669756395	 3.439112367
C	 -3.650117674	 0.440259654	 3.133070688
H	 -2.870507189	 0.644162124	 3.866064447
H	 -4.607065789	 0.738380189	 3.568404961
