27
0  1  0  1  0  1  12  15 52.24624 54.49413 48.72321 46.47533 48.46719 47.28424 81.80969 81.81409 81.73965 49.72047 -56.20207 149.27755 -11.60517 -31.74984
C	 -2.142384419	 -1.323036309	 0.000178155
H	 -1.804323928	 -2.350535697	 0.000367534
C	 -2.252589209	 -0.625564659	 1.201820778
H	 -1.999320313	 -1.111596443	 2.134398832
C	 -2.690215548	 0.697749463	 1.201660142
H	 -2.774948171	 1.239429350	 2.133929629
C	 -3.018477065	 1.323149801	 -0.000003214
H	 -3.357043343	 2.350209681	 -0.000001608
C	 -2.908951135	 0.625405357	 -1.201865253
H	 -3.163099694	 1.110892862	 -2.134210457
C	 -2.470430258	 -0.697601057	 -1.201835432
H	 -2.385627039	 -1.239486278	 -2.134074437
C	 -0.420805260	 0.755722109	 -0.099121334
H	 -1.256460326	 0.085822595	 -0.310437094
H	 -0.805151493	 1.774527702	 -0.063984984
C	 0.271393520	 0.333634441	 1.199632280
H	 -0.435751762	 0.046418891	 1.976146532
H	 0.859259292	 1.168199303	 1.584502506
C	 1.209048600	 -0.827585576	 0.792743236
H	 0.832800727	 -1.783139921	 1.154651801
H	 2.201115384	 -0.692521658	 1.221045148
C	 1.258922380	 -0.807448228	 -0.752033017
H	 0.621030142	 -1.596306807	 -1.152106028
H	 2.263047825	 -0.967038310	 -1.141558787
C	 0.671709873	 0.550638963	 -1.145725579
H	 0.302446383	 0.572890880	 -2.170322038
H	 1.428865962	 1.332023177	 -1.044262061
