27
0  1  0  1  0  1  12  15 -2.17424 -1.99802 -2.57476 -2.75098 -2.64235 -2.70624  1.79123  1.78878  1.78620 -2.22047 -1.58557  4.03245 -0.48094 -4.18642
C	 -3.504820137	 -1.323038064	 0.000179763
H	 -3.166759646	 -2.350537452	 0.000369142
C	 -3.615024927	 -0.625566414	 1.201822386
H	 -3.361756031	 -1.111598198	 2.134400440
C	 -4.052651266	 0.697747708	 1.201661750
H	 -4.137383889	 1.239427595	 2.133931237
C	 -4.380912783	 1.323148046	 -0.000001606
H	 -4.719479061	 2.350207926	 0.000000000
C	 -4.271386853	 0.625403602	 -1.201863645
H	 -4.525535412	 1.110891107	 -2.134208849
C	 -3.832865976	 -0.697602812	 -1.201833824
H	 -3.748062757	 -1.239488033	 -2.134072829
C	 0.706176400	 1.260600558	 -0.099121334
H	 -0.291801131	 1.649349317	 -0.310437094
H	 1.396314808	 2.102856956	 -0.063984984
C	 0.686737146	 0.450094996	 1.199632280
H	 0.084428543	 0.918892999	 1.976146532
H	 1.703424404	 0.358270735	 1.584502506
C	 0.149918652	 -0.942548132	 0.792743236
H	 -0.865739621	 -1.094485088	 1.154651801
H	 0.762920828	 -1.734171210	 1.221045148
C	 0.192294997	 -0.975671418	 -0.752033017
H	 -0.809822691	 -0.817669825	 -1.152106028
H	 0.556148655	 -1.925064603	 -1.141558787
C	 1.074826752	 0.211913126	 -1.145725579
H	 0.909465732	 0.542830647	 -2.170322038
H	 2.130103376	 -0.053111175	 -1.044262061
