27
0  1  0  1  0  1  12  15 12.74833 13.73966 11.17869 10.18735 11.02975 10.53590 28.31672 28.31770 28.30148 13.22622 -20.00115 55.75359 -6.27327 -16.25295
C	 -2.603956919	 -1.323037032	 0.000178691
H	 -2.265896428	 -2.350536420	 0.000368070
C	 -2.714161709	 -0.625565382	 1.201821314
H	 -2.460892813	 -1.111597166	 2.134399368
C	 -3.151788048	 0.697748740	 1.201660678
H	 -3.236520671	 1.239428627	 2.133930165
C	 -3.480049565	 1.323149078	 -0.000002678
H	 -3.818615843	 2.350208958	 -0.000001072
C	 -3.370523635	 0.625404634	 -1.201864717
H	 -3.624672194	 1.110892139	 -2.134209921
C	 -2.932002758	 -0.697601780	 -1.201834896
H	 -2.847199539	 -1.239487001	 -2.134073901
C	 0.706176400	 1.260600558	 -0.099121334
H	 -0.291801131	 1.649349317	 -0.310437094
H	 1.396314808	 2.102856956	 -0.063984984
C	 0.686737146	 0.450094996	 1.199632280
H	 0.084428543	 0.918892999	 1.976146532
H	 1.703424404	 0.358270735	 1.584502506
C	 0.149918652	 -0.942548132	 0.792743236
H	 -0.865739621	 -1.094485088	 1.154651801
H	 0.762920828	 -1.734171210	 1.221045148
C	 0.192294997	 -0.975671418	 -0.752033017
H	 -0.809822691	 -0.817669825	 -1.152106028
H	 0.556148655	 -1.925064603	 -1.141558787
C	 1.074826752	 0.211913126	 -1.145725579
H	 0.909465732	 0.542830647	 -2.170322038
H	 2.130103376	 -0.053111175	 -1.044262061
