27
0  1  0  1  0  1  12  15 -1.82361 -1.74559 -2.08856 -2.16658 -2.12564 -2.14945  0.40953  0.41058  0.41024 -1.93029 -0.48576  1.10255 -0.16286 -2.38421
C	 -3.956856170	 -1.323038701	 0.000180193
H	 -3.618795679	 -2.350538089	 0.000369572
C	 -4.067060960	 -0.625567051	 1.201822816
H	 -3.813792064	 -1.111598835	 2.134400870
C	 -4.504687299	 0.697747071	 1.201662180
H	 -4.589419922	 1.239426958	 2.133931667
C	 -4.832948816	 1.323147409	 -0.000001176
H	 -5.171515094	 2.350207289	 0.000000430
C	 -4.723422886	 0.625402965	 -1.201863215
H	 -4.977571445	 1.110890470	 -2.134208419
C	 -4.284902009	 -0.697603449	 -1.201833394
H	 -4.200098790	 -1.239488670	 -2.134072399
C	 0.189719621	 1.164124435	 -0.338280818
H	 -0.621438797	 1.001801970	 -1.050609771
H	 0.325047534	 2.238609076	 -0.219577249
C	 -0.123277422	 0.452486401	 0.980681752
H	 -1.166261491	 0.557323080	 1.275156044
H	 0.486563979	 0.881307887	 1.777183707
C	 0.280585393	 -1.021987173	 0.744017059
H	 -0.596321963	 -1.661397573	 0.655630376
H	 0.868968917	 -1.401051781	 1.578280893
C	 1.099098582	 -1.029484608	 -0.567168102
H	 0.479130124	 -1.393710058	 -1.387071579
H	 1.977851018	 -1.669756395	 -0.509605763
C	 1.443604486	 0.440259654	 -0.822864539
H	 1.688590461	 0.644162124	 -1.864523903
H	 2.299089084	 0.738380189	 -0.211790297
