27
0  1  0  1  0  1  12  15 67.36245 69.81599 63.81818 61.36464 63.57927 62.24968 99.19468 99.19398 99.07722 63.94461 -69.02868 191.19282 -23.74462 -34.47491
C	 -2.153525310	 -1.323036515	 0.000178155
H	 -1.815464819	 -2.350535903	 0.000367534
C	 -2.263730100	 -0.625564865	 1.201820778
H	 -2.010461204	 -1.111596649	 2.134398832
C	 -2.701356439	 0.697749257	 1.201660142
H	 -2.786089062	 1.239429144	 2.133929629
C	 -3.029617956	 1.323149595	 -0.000003214
H	 -3.368184234	 2.350209475	 -0.000001608
C	 -2.920092026	 0.625405151	 -1.201865253
H	 -3.174240585	 1.110892656	 -2.134210457
C	 -2.481571149	 -0.697601263	 -1.201835432
H	 -2.396767930	 -1.239486484	 -2.134074437
C	 0.706176400	 1.260600558	 -0.099121334
H	 -0.291801131	 1.649349317	 -0.310437094
H	 1.396314808	 2.102856956	 -0.063984984
C	 0.686737146	 0.450094996	 1.199632280
H	 0.084428543	 0.918892999	 1.976146532
H	 1.703424404	 0.358270735	 1.584502506
C	 0.149918652	 -0.942548132	 0.792743236
H	 -0.865739621	 -1.094485088	 1.154651801
H	 0.762920828	 -1.734171210	 1.221045148
C	 0.192294997	 -0.975671418	 -0.752033017
H	 -0.809822691	 -0.817669825	 -1.152106028
H	 0.556148655	 -1.925064603	 -1.141558787
C	 1.074826752	 0.211913126	 -1.145725579
H	 0.909465732	 0.542830647	 -2.170322038
H	 2.130103376	 -0.053111175	 -1.044262061
