27
0  1  0  1  0  1  12  15 -2.26233 -1.94116 -2.78264 -3.10381 -2.89265 -3.01669  4.14890  4.14593  4.14129 -2.24341 -3.02202  8.35814 -0.80000 -6.77953
C	 -0.639195076	 -1.323037745	 -0.098753564
H	 -0.977255566	 -2.350537133	 -0.098942943
C	 -0.528990286	 -0.625566095	 -1.300396187
H	 -0.782259181	 -1.111597879	 -2.232974241
C	 -0.091363946	 0.697748027	 -1.300235551
H	 -0.006631323	 1.239427914	 -2.232505038
C	 0.236897570	 1.323148365	 -0.098572195
H	 0.575463849	 2.350208245	 -0.098573801
C	 0.127371640	 0.625403921	 1.103289844
H	 0.381520200	 1.110891426	 2.035635048
C	 -0.311149236	 -0.697602493	 1.103260023
H	 -0.395952456	 -1.239487714	 2.035499028
C	 -3.633411691	 1.164124435	 -1.633199494
H	 -2.822253272	 1.001801970	 -0.920870541
H	 -3.768739603	 2.238609076	 -1.751903063
C	 -3.320414646	 0.452486401	 -2.952162064
H	 -2.277430578	 0.557323080	 -3.246636356
H	 -3.930256048	 0.881307887	 -3.748664018
C	 -3.724277462	 -1.021987173	 -2.715497371
H	 -2.847370106	 -1.661397573	 -2.627110688
H	 -4.312660986	 -1.401051781	 -3.549761205
C	 -4.542790651	 -1.029484608	 -1.404312210
H	 -3.922822193	 -1.393710058	 -0.584408732
H	 -5.421543086	 -1.669756395	 -1.461874549
C	 -4.887296556	 0.440259654	 -1.148615773
H	 -5.132282530	 0.644162124	 -0.106956409
H	 -5.742781153	 0.738380189	 -1.759690015
