27
0  1  0  1  0  1  12  15 -2.11378 -1.95015 -2.55307 -2.71670 -2.61750 -2.67511  1.65130  1.64830  1.64769 -2.20487 -1.50624  3.78322 -0.46572 -4.01613
C	 -0.438140487	 -1.323038064	 -0.000179763
H	 -0.776200977	 -2.350537452	 -0.000369142
C	 -0.327935697	 -0.625566414	 -1.201822386
H	 -0.581204592	 -1.111598198	 -2.134400440
C	 0.109690643	 0.697747708	 -1.201661750
H	 0.194423266	 1.239427595	 -2.133931237
C	 0.437952159	 1.323148046	 0.000001606
H	 0.776518438	 2.350207926	 -0.000000000
C	 0.328426229	 0.625403602	 1.201863645
H	 0.582574789	 1.110891107	 2.134208849
C	 -0.110094647	 -0.697602812	 1.201833824
H	 -0.194897867	 -1.239488033	 2.134072829
C	 -2.947977589	 2.727202421	 0.099121334
H	 -2.112322523	 2.057302906	 0.310437094
H	 -2.563631356	 3.746008013	 0.063984984
C	 -3.640176369	 2.305114752	 -1.199632280
H	 -2.933031087	 2.017899203	 -1.976146532
H	 -4.228042140	 3.139679614	 -1.584502506
C	 -4.577831449	 1.143894735	 -0.792743236
H	 -4.201583576	 0.188340391	 -1.154651801
H	 -5.569898234	 1.278958654	 -1.221045148
C	 -4.627705230	 1.164032084	 0.752033017
H	 -3.989812991	 0.375173505	 1.152106028
H	 -5.631830673	 1.004442002	 1.141558787
C	 -4.040492722	 2.522119275	 1.145725579
H	 -3.671229232	 2.544371192	 2.170322038
H	 -4.797648811	 3.303503489	 1.044262061
