27
0  1  0  1  0  1  12  15 -0.28460  0.12390 -1.03961 -1.44810 -1.14254 -1.32185  7.49525  7.49163  7.48535 -0.04497 -5.55818 15.32036 -1.70223 -8.10493
C	 -3.054388528	 -1.323037548	 0.000179227
H	 -2.716328037	 -2.350536936	 0.000368606
C	 -3.164593318	 -0.625565898	 1.201821850
H	 -2.911324422	 -1.111597682	 2.134399904
C	 -3.602219657	 0.697748224	 1.201661214
H	 -3.686952280	 1.239428111	 2.133930701
C	 -3.930481174	 1.323148562	 -0.000002142
H	 -4.269047452	 2.350208442	 -0.000000536
C	 -3.820955244	 0.625404118	 -1.201864181
H	 -4.075103803	 1.110891623	 -2.134209385
C	 -3.382434367	 -0.697602296	 -1.201834360
H	 -3.297631148	 -1.239487517	 -2.134073365
C	 0.706176400	 1.260600558	 -0.099121334
H	 -0.291801131	 1.649349317	 -0.310437094
H	 1.396314808	 2.102856956	 -0.063984984
C	 0.686737146	 0.450094996	 1.199632280
H	 0.084428543	 0.918892999	 1.976146532
H	 1.703424404	 0.358270735	 1.584502506
C	 0.149918652	 -0.942548132	 0.792743236
H	 -0.865739621	 -1.094485088	 1.154651801
H	 0.762920828	 -1.734171210	 1.221045148
C	 0.192294997	 -0.975671418	 -0.752033017
H	 -0.809822691	 -0.817669825	 -1.152106028
H	 0.556148655	 -1.925064603	 -1.141558787
C	 1.074826752	 0.211913126	 -1.145725579
H	 0.909465732	 0.542830647	 -2.170322038
H	 2.130103376	 -0.053111175	 -1.044262061
