27
0  1  0  1  0  1  12  15 -2.12009 -1.83862 -2.70435 -2.98582 -2.80535 -2.91127  3.65522  3.65237  3.64863 -2.16311 -2.83552  7.68186 -0.84412 -6.16533
C	 -0.634622140	 -1.323037745	 0.098394502
H	 -0.972682630	 -2.350537133	 0.098205123
C	 -0.524417350	 -0.625566095	 -1.103248121
H	 -0.777686245	 -1.111597879	 -2.035826175
C	 -0.086791010	 0.697748027	 -1.103087485
H	 -0.002058387	 1.239427914	 -2.035356972
C	 0.241470506	 1.323148365	 0.098575871
H	 0.580036785	 2.350208245	 0.098574265
C	 0.131944576	 0.625403921	 1.300437910
H	 0.386093136	 1.110891426	 2.232783114
C	 -0.306576300	 -0.697602493	 1.300408089
H	 -0.391379520	 -1.239487714	 2.232647094
C	 -3.442837054	 1.164124435	 1.804882681
H	 -2.420362875	 1.001801970	 1.458563360
H	 -3.613301316	 2.238609076	 1.862728306
C	 -4.428593623	 0.452486401	 0.874338004
H	 -4.162123807	 0.557323080	 -0.176149841
H	 -5.423305251	 0.881307887	 1.004225173
C	 -4.425567395	 -1.021987173	 1.342425808
H	 -3.910568604	 -1.661397573	 0.627195103
H	 -5.442252831	 -1.401051781	 1.434848971
C	 -3.699304331	 -1.029484608	 2.706871604
H	 -2.679262862	 -1.393710058	 2.579914909
H	 -4.188530996	 -1.669756395	 3.439112367
C	 -3.650117674	 0.440259654	 3.133070688
H	 -2.870507189	 0.644162124	 3.866064447
H	 -4.607065789	 0.738380189	 3.568404961
