27
0  1  0  1  0  1  12  15 10.53054 11.41444  8.92278  8.03888  8.77130  8.34183 24.81805 24.82060 24.80629 10.61388 -17.98938 49.53107 -5.87234 -15.05547
C	 -1.231595411	 -0.928740832	 -0.000178691
H	 -1.569655901	 -1.956240220	 -0.000368070
C	 -1.121390621	 -0.231269182	 -1.201821314
H	 -1.374659516	 -0.717300966	 -2.134399368
C	 -0.683764281	 1.092044940	 -1.201660678
H	 -0.599031658	 1.633724827	 -2.133930165
C	 -0.355502765	 1.717445278	 0.000002678
H	 -0.016936486	 2.744505158	 0.000001072
C	 -0.465028695	 1.019700834	 1.201864717
H	 -0.210880135	 1.505188339	 2.134209921
C	 -0.903549571	 -0.303305580	 1.201834896
H	 -0.988352791	 -0.845190801	 2.134073901
C	 -2.947977589	 2.727202421	 0.099121334
H	 -2.112322523	 2.057302906	 0.310437094
H	 -2.563631356	 3.746008013	 0.063984984
C	 -3.640176369	 2.305114752	 -1.199632280
H	 -2.933031087	 2.017899203	 -1.976146532
H	 -4.228042140	 3.139679614	 -1.584502506
C	 -4.577831449	 1.143894735	 -0.792743236
H	 -4.201583576	 0.188340391	 -1.154651801
H	 -5.569898234	 1.278958654	 -1.221045148
C	 -4.627705230	 1.164032084	 0.752033017
H	 -3.989812991	 0.375173505	 1.152106028
H	 -5.631830673	 1.004442002	 1.141558787
C	 -4.040492722	 2.522119275	 1.145725579
H	 -3.671229232	 2.544371192	 2.170322038
H	 -4.797648811	 3.303503489	 1.044262061
