27
0  1  0  1  0  1  12  15 -1.87308 -1.79143 -2.15074 -2.23239 -2.19236 -2.21568  0.42571  0.42611  0.42569 -1.99538 -0.51433  1.17633 -0.16865 -2.48872
C	 -0.045177180	 -1.323038701	 -0.197328292
H	 -0.383237670	 -2.350538089	 -0.197517671
C	 0.065027610	 -0.625567051	 -1.398970915
H	 -0.188241285	 -1.111598835	 -2.331548969
C	 0.502653950	 0.697747071	 -1.398810279
H	 0.587386573	 1.239426958	 -2.331079766
C	 0.830915466	 1.323147409	 -0.197146923
H	 1.169481745	 2.350207289	 -0.197148529
C	 0.721389536	 0.625402965	 1.004715116
H	 0.975538096	 1.110890470	 1.937060320
C	 0.282868660	 -0.697603449	 1.004685295
H	 0.198065440	 -1.239488670	 1.936924300
C	 -3.442837054	 1.164124435	 1.804882681
H	 -2.420362875	 1.001801970	 1.458563360
H	 -3.613301316	 2.238609076	 1.862728306
C	 -4.428593623	 0.452486401	 0.874338004
H	 -4.162123807	 0.557323080	 -0.176149841
H	 -5.423305251	 0.881307887	 1.004225173
C	 -4.425567395	 -1.021987173	 1.342425808
H	 -3.910568604	 -1.661397573	 0.627195103
H	 -5.442252831	 -1.401051781	 1.434848971
C	 -3.699304331	 -1.029484608	 2.706871604
H	 -2.679262862	 -1.393710058	 2.579914909
H	 -4.188530996	 -1.669756395	 3.439112367
C	 -3.650117674	 0.440259654	 3.133070688
H	 -2.870507189	 0.644162124	 3.866064447
H	 -4.607065789	 0.738380189	 3.568404961
