27
0  1  0  1  0  1  12  15 -0.55939 -0.08004 -1.51129 -1.99065 -1.64316 -1.84686  8.35431  8.34874  8.34207 -0.41492 -6.12084 16.96927 -1.86005 -9.40329
C	 -3.076241867	 -1.323037427	 0.000179265
H	 -2.738181376	 -2.350536815	 0.000368644
C	 -3.186446657	 -0.625565777	 1.201821888
H	 -2.933177761	 -1.111597561	 2.134399942
C	 -3.624072996	 0.697748345	 1.201661252
H	 -3.708805619	 1.239428232	 2.133930739
C	 -3.952334513	 1.323148683	 -0.000002104
H	 -4.290900791	 2.350208563	 -0.000000498
C	 -3.842808583	 0.625404239	 -1.201864143
H	 -4.096957142	 1.110891744	 -2.134209347
C	 -3.404287706	 -0.697602175	 -1.201834322
H	 -3.319484487	 -1.239487396	 -2.134073327
C	 -0.143973938	 1.164124435	 0.166597631
H	 -1.166448116	 1.001801970	 0.512916951
H	 0.026490325	 2.238609076	 0.108752005
C	 0.841782633	 0.452486401	 1.097142307
H	 0.575312816	 0.557323080	 2.147630152
H	 1.836494260	 0.881307887	 0.967255139
C	 0.838756404	 -1.021987173	 0.629054503
H	 0.323757613	 -1.661397573	 1.344285209
H	 1.855441840	 -1.401051781	 0.536631341
C	 0.112493340	 -1.029484608	 -0.735391292
H	 -0.907548129	 -1.393710058	 -0.608434597
H	 0.601720006	 -1.669756395	 -1.467632056
C	 0.063306682	 0.440259654	 -1.161590376
H	 -0.716303802	 0.644162124	 -1.894584136
H	 1.020254798	 0.738380189	 -1.596924649
