27
0  1  0  1  0  1  12  15 -3.38739 -3.16702 -3.99176 -4.21214 -4.08533 -4.15974  1.64298  1.64158  1.63899 -3.54162 -1.62658  3.93500 -0.44373 -5.40630
C	 0.756661967	 0.852532227	 0.624670879
H	 1.428592973	 1.664294536	 0.868782739
C	 1.228769110	 -0.458550175	 0.597567880
H	 2.266875282	 -0.664250176	 0.821391338
C	 0.363353742	 -1.504248765	 0.280948545
H	 0.729304395	 -2.521792222	 0.260736018
C	 -0.973816673	 -1.238683723	 -0.009441738
H	 -1.645342977	 -2.050272885	 -0.254093691
C	 -1.445948587	 0.072693476	 0.016957065
H	 -2.483567809	 0.278590056	 -0.207787536
C	 -0.580789982	 1.118312058	 0.334492732
H	 -0.946582843	 2.135998483	 0.354757571
C	 -0.764772305	 -0.729106855	 4.030677055
H	 -0.871026146	 -0.554157695	 2.958370190
H	 -1.416409880	 -1.558370751	 4.303827720
C	 0.704768881	 -0.986169945	 4.374806934
H	 1.199999661	 -1.623754993	 3.644222656
H	 0.768048056	 -1.486383718	 5.342273570
C	 1.344905927	 0.419226729	 4.465759790
H	 1.995174243	 0.611897662	 3.613906866
H	 1.957773110	 0.508396152	 5.361485152
C	 0.165859804	 1.418403747	 4.492631826
H	 0.048708316	 1.877374140	 3.510346488
H	 0.311453394	 2.219908577	 5.215030429
C	 -1.067911961	 0.561308558	 4.788280691
H	 -1.998900471	 1.037046004	 4.482367547
H	 -1.133337724	 0.351987646	 5.858815933
