27
0  1  0  1  0  1  12  15 -1.81107 -1.54310 -2.35230 -2.62027 -2.43772 -2.54511  3.72795  3.72404  3.71965 -1.75318 -2.94657  7.89342 -0.89750 -5.80253
C	 -3.279604333	 -1.323037806	 0.000179495
H	 -2.941543842	 -2.350537194	 0.000368874
C	 -3.389809123	 -0.625566156	 1.201822118
H	 -3.136540227	 -1.111597940	 2.134400172
C	 -3.827435462	 0.697747966	 1.201661482
H	 -3.912168085	 1.239427853	 2.133930969
C	 -4.155696979	 1.323148304	 -0.000001874
H	 -4.494263257	 2.350208184	 -0.000000268
C	 -4.046171049	 0.625403860	 -1.201863913
H	 -4.300319608	 1.110891365	 -2.134209117
C	 -3.607650172	 -0.697602554	 -1.201834092
H	 -3.522846953	 -1.239487775	 -2.134073097
C	 0.706176400	 1.260600558	 -0.099121334
H	 -0.291801131	 1.649349317	 -0.310437094
H	 1.396314808	 2.102856956	 -0.063984984
C	 0.686737146	 0.450094996	 1.199632280
H	 0.084428543	 0.918892999	 1.976146532
H	 1.703424404	 0.358270735	 1.584502506
C	 0.149918652	 -0.942548132	 0.792743236
H	 -0.865739621	 -1.094485088	 1.154651801
H	 0.762920828	 -1.734171210	 1.221045148
C	 0.192294997	 -0.975671418	 -0.752033017
H	 -0.809822691	 -0.817669825	 -1.152106028
H	 0.556148655	 -1.925064603	 -1.141558787
C	 1.074826752	 0.211913126	 -1.145725579
H	 0.909465732	 0.542830647	 -2.170322038
H	 2.130103376	 -0.053111175	 -1.044262061
