27
0  1  0  1  0  1  12  15 -0.25609  0.18097 -1.08826 -1.52532 -1.19863 -1.39029  8.04924  8.04598  8.03938 -0.03620 -5.68107 15.98272 -1.72278 -8.61507
C	 -3.052784104	 -1.323037427	 0.000179333
H	 -2.714723613	 -2.350536815	 0.000368712
C	 -3.162988894	 -0.625565777	 1.201821956
H	 -2.909719998	 -1.111597561	 2.134400010
C	 -3.600615233	 0.697748345	 1.201661320
H	 -3.685347856	 1.239428232	 2.133930807
C	 -3.928876750	 1.323148683	 -0.000002036
H	 -4.267443028	 2.350208563	 -0.000000430
C	 -3.819350820	 0.625404239	 -1.201864075
H	 -4.073499379	 1.110891744	 -2.134209279
C	 -3.380829943	 -0.697602175	 -1.201834254
H	 -3.296026724	 -1.239487396	 -2.134073259
C	 0.189719621	 1.164124435	 -0.338280818
H	 -0.621438797	 1.001801970	 -1.050609771
H	 0.325047534	 2.238609076	 -0.219577249
C	 -0.123277422	 0.452486401	 0.980681752
H	 -1.166261491	 0.557323080	 1.275156044
H	 0.486563979	 0.881307887	 1.777183707
C	 0.280585393	 -1.021987173	 0.744017059
H	 -0.596321963	 -1.661397573	 0.655630376
H	 0.868968917	 -1.401051781	 1.578280893
C	 1.099098582	 -1.029484608	 -0.567168102
H	 0.479130124	 -1.393710058	 -1.387071579
H	 1.977851018	 -1.669756395	 -0.509605763
C	 1.443604486	 0.440259654	 -0.822864539
H	 1.688590461	 0.644162124	 -1.864523903
H	 2.299089084	 0.738380189	 -0.211790297
