27
0  1  0  1  0  1  12  15 61.73181 64.30739 59.02430 56.44872 58.71703 57.37271 93.79383 93.78384 93.70573 59.18771 -62.51364 170.54229 -13.04131 -35.79963
C	 -1.674365767	 -1.914480609	 -0.000178155
H	 -2.012426257	 -2.941979997	 -0.000367534
C	 -1.564160977	 -1.217008959	 -1.201820778
H	 -1.817429872	 -1.703040743	 -2.134398832
C	 -1.126534637	 0.106305163	 -1.201660142
H	 -1.041802014	 0.647985050	 -2.133929629
C	 -0.798273121	 0.731705501	 0.000003214
H	 -0.459706842	 1.758765381	 0.000001608
C	 -0.907799051	 0.033961057	 1.201865253
H	 -0.653650491	 0.519448562	 2.134210457
C	 -1.346319927	 -1.289045357	 1.201835432
H	 -1.431123147	 -1.830930578	 2.134074437
C	 -4.265571869	 -0.710879754	 0.099121334
H	 -3.267594338	 -0.322130995	 0.310437094
H	 -4.955710277	 0.131376644	 0.063984984
C	 -4.246132615	 -1.521385316	 -1.199632280
H	 -3.643824012	 -1.052587312	 -1.976146532
H	 -5.262819872	 -1.613209577	 -1.584502506
C	 -3.709314121	 -2.914028444	 -0.792743236
H	 -2.693655848	 -3.065965400	 -1.154651801
H	 -4.322316298	 -3.705651522	 -1.221045148
C	 -3.751690467	 -2.947151730	 0.752033017
H	 -2.749572778	 -2.789150136	 1.152106028
H	 -4.115544123	 -3.896544914	 1.141558787
C	 -4.634222221	 -1.759567186	 1.145725579
H	 -4.468861201	 -1.428649664	 2.170322038
H	 -5.689498845	 -2.024591487	 1.044262061
