27
0  1  0  1  0  1  12  15 54.41840 56.50654 51.04371 48.95557 50.80577 49.70251 82.93241 82.93433 82.85465 50.81523 -59.32177 164.21133 -22.70952 -31.36482
C	 -1.628322872	 -0.731592216	 -0.000178155
H	 -1.966383362	 -1.759091604	 -0.000367534
C	 -1.518118082	 -0.034120566	 -1.201820778
H	 -1.771386977	 -0.520152350	 -2.134398832
C	 -1.080491742	 1.289193556	 -1.201660142
H	 -0.995759119	 1.830873443	 -2.133929629
C	 -0.752230226	 1.914593894	 0.000003214
H	 -0.413663947	 2.941653774	 0.000001608
C	 -0.861756156	 1.216849450	 1.201865253
H	 -0.607607596	 1.702336955	 2.134210457
C	 -1.300277032	 -0.106156964	 1.201835432
H	 -1.385080252	 -0.648042185	 2.134074437
C	 -2.947977589	 2.727202421	 0.099121334
H	 -2.112322523	 2.057302906	 0.310437094
H	 -2.563631356	 3.746008013	 0.063984984
C	 -3.640176369	 2.305114752	 -1.199632280
H	 -2.933031087	 2.017899203	 -1.976146532
H	 -4.228042140	 3.139679614	 -1.584502506
C	 -4.577831449	 1.143894735	 -0.792743236
H	 -4.201583576	 0.188340391	 -1.154651801
H	 -5.569898234	 1.278958654	 -1.221045148
C	 -4.627705230	 1.164032084	 0.752033017
H	 -3.989812991	 0.375173505	 1.152106028
H	 -5.631830673	 1.004442002	 1.141558787
C	 -4.040492722	 2.522119275	 1.145725579
H	 -3.671229232	 2.544371192	 2.170322038
H	 -4.797648811	 3.303503489	 1.044262061
