29
0  1  0  1  0  1  12  17 -2.17119 -2.01507 -2.51606 -2.67218 -2.58377 -2.63532  1.19279  1.18867  1.18762 -2.29862 -1.03769  2.67204 -0.30314 -3.62983
C	 -2.738660455	 -1.391446250	 -0.000010717
H	 -2.803081365	 -2.471208309	 -0.000036593
C	 -2.696775871	 -0.695692628	 1.207210117
H	 -2.727811997	 -1.235452873	 2.143947099
C	 -2.615181468	 0.695657174	 1.207118469
H	 -2.582150515	 1.235353371	 2.143692232
C	 -2.575372889	 1.391351008	 0.000010720
H	 -2.510423350	 2.470808201	 -0.000000000
C	 -2.616683389	 0.695753774	 -1.207124373
H	 -2.583717202	 1.235433865	 -2.143702319
C	 -2.698385547	 -0.695592897	 -1.207200149
H	 -2.730387700	 -1.235293896	 -2.143948872
C	 2.205868716	 -0.491481463	 -0.002929009
C	 2.114891774	 -1.370751331	 1.241738745
H	 2.924988568	 -2.101711377	 1.261693317
H	 2.181697425	 -0.767113443	 2.148364974
H	 1.166529418	 -1.909242618	 1.263260678
C	 3.537042551	 0.254931809	 -0.003429044
H	 3.624736392	 0.891210079	 -0.885360543
H	 3.627012516	 0.888341807	 0.880348420
H	 4.375368381	 -0.443492449	 -0.005659688
C	 1.054972372	 0.511488774	 -0.000174196
H	 1.099017138	 1.152838902	 -0.882239700
H	 1.100839365	 1.150122130	 0.883756276
H	 0.091647795	 0.000001373	 0.000000185
C	 2.111966749	 -1.367052815	 -1.249989832
H	 1.163453599	 -1.905330422	 -1.270944323
H	 2.176845299	 -0.760770467	 -2.154998846
H	 2.921838871	 -2.098132486	 -1.273868766
