29
0  1  0  1  0  1  12  17 -2.13613 -1.87968 -2.57980 -2.83625 -2.67416 -2.76965  2.96538  2.96092  2.95669 -2.20825 -2.31161  6.21112 -0.64889 -5.45887
C	 -2.738660455	 -1.391446250	 -0.000010717
H	 -2.803081365	 -2.471208309	 -0.000036593
C	 -2.696775871	 -0.695692628	 1.207210117
H	 -2.727811997	 -1.235452873	 2.143947099
C	 -2.615181468	 0.695657174	 1.207118469
H	 -2.582150515	 1.235353371	 2.143692232
C	 -2.575372889	 1.391351008	 0.000010720
H	 -2.510423350	 2.470808201	 -0.000000000
C	 -2.616683389	 0.695753774	 -1.207124373
H	 -2.583717202	 1.235433865	 -2.143702319
C	 -2.698385547	 -0.695592897	 -1.207200149
H	 -2.730387700	 -1.235293896	 -2.143948872
C	 1.589286508	 -1.482748455	 -0.795150746
C	 1.762652657	 -2.198730026	 0.541974787
H	 2.063687554	 -3.236808392	 0.391213763
H	 2.527452883	 -1.709367106	 1.147298965
H	 0.828968290	 -2.190895983	 1.105889096
C	 2.910623295	 -1.501922517	 -1.558602286
H	 2.810944499	 -0.994736292	 -2.519419483
H	 3.694264075	 -0.998358350	 -0.990539188
H	 3.235825770	 -2.525938582	 -1.748933748
C	 1.161790509	 -0.038702578	 -0.545154831
H	 1.031504083	 0.494700542	 -1.488455441
H	 1.914692344	 0.491436635	 0.040832083
H	 0.217903725	 -0.000001373	 -0.000000185
C	 0.516196104	 -2.194064505	 -1.615583516
H	 -0.438747044	 -2.185970012	 -1.088442994
H	 0.374878467	 -1.701447865	 -2.579008136
H	 0.795093945	 -3.232134134	 -1.804178278
