29
0  1  0  1  0  1  12  17 -1.55752 -1.28132 -1.92786 -2.20407 -2.02439 -2.12992  3.63422  3.63098  3.62706 -1.57947 -2.75838  7.53783 -0.79868 -5.56024
C	 0.081862187	 -1.391446250	 0.000010717
H	 0.146283097	 -2.471208309	 0.000036593
C	 0.039977603	 -0.695692628	 -1.207210117
H	 0.071013729	 -1.235452873	 -2.143947099
C	 -0.041616800	 0.695657174	 -1.207118469
H	 -0.074647753	 1.235353371	 -2.143692232
C	 -0.081425379	 1.391351008	 -0.000010720
H	 -0.146374918	 2.470808201	 -0.000000000
C	 -0.040114879	 0.695753774	 1.207124373
H	 -0.073081066	 1.235433865	 2.143702319
C	 0.041587279	 -0.695592897	 1.207200149
H	 0.073589432	 -1.235293896	 2.143948872
C	 -3.983678226	 -1.482749827	 -1.985635899
C	 -2.912376621	 -2.198731398	 -2.804338155
H	 -3.193456946	 -3.236809764	 -2.989661511
H	 -2.770550618	 -1.709368479	 -3.769336668
H	 -1.957170320	 -2.190897355	 -2.277700928
C	 -5.305515047	 -1.501923889	 -2.748221353
H	 -6.087767750	 -0.994737665	 -2.181488385
H	 -5.205378364	 -0.998359723	 -3.710905725
H	 -5.632948167	 -2.525939954	 -2.934689227
C	 -3.553427413	 -0.038703951	 -1.740411461
H	 -4.305206492	 0.494699169	 -1.155929802
H	 -3.422398777	 0.491435262	 -2.685437034
H	 -2.609366249	 -0.000002745	 -1.195558851
C	 -4.157648645	 -2.194065877	 -0.646095964
H	 -3.223659988	 -2.185971384	 -0.082661199
H	 -4.921340022	 -1.701449238	 -0.041998990
H	 -4.460425420	 -3.232135506	 -0.793331198
