29
0  1  0  1  0  1  12  17  1.25140  1.82111  0.74265  0.17295  0.58557  0.34237 10.48473 10.47341 10.46238  1.37355 -6.97216 20.26334 -1.91892 -9.99872
C	 0.081862187	 -1.391446250	 0.000010717
H	 0.146283097	 -2.471208309	 0.000036593
C	 0.039977603	 -0.695692628	 -1.207210117
H	 0.071013729	 -1.235452873	 -2.143947099
C	 -0.041616800	 0.695657174	 -1.207118469
H	 -0.074647753	 1.235353371	 -2.143692232
C	 -0.081425379	 1.391351008	 -0.000010720
H	 -0.146374918	 2.470808201	 -0.000000000
C	 -0.040114879	 0.695753774	 1.207124373
H	 -0.073081066	 1.235433865	 2.143702319
C	 0.041587279	 -0.695592897	 1.207200149
H	 0.073589432	 -1.235293896	 2.143948872
C	 -3.074860953	 -3.139435243	 0.002929934
C	 -2.267902440	 -3.500281834	 -1.241737820
H	 -2.039920868	 -4.567326260	 -1.261692392
H	 -2.824071011	 -3.256318281	 -2.148364049
H	 -1.327374127	 -2.948221585	 -1.263259753
C	 -4.386860726	 -3.919058965	 0.003429969
H	 -4.981740792	 -3.676864924	 0.885361468
H	 -4.980394858	 -3.680270241	 -0.880347495
H	 -4.201170491	 -4.994282559	 0.005660613
C	 -3.368010485	 -1.641244653	 0.000175121
H	 -3.945458372	 -1.358713476	 0.882240625
H	 -3.944016691	 -1.361649956	 -0.883755351
H	 -2.443387114	 -1.062724798	 0.000000740
C	 -2.269642936	 -3.495899430	 1.249990757
H	 -1.329224279	 -2.943601750	 1.270945248
H	 -2.827138126	 -3.248944728	 2.154999771
H	 -2.041445429	 -4.562809097	 1.273869691
