29
0  1  0  1  0  1  12  17 -2.72160 -2.39660 -3.30315 -3.62814 -3.42723 -3.54546  3.44118  3.43270  3.42776 -2.80210 -2.88989  7.51760 -0.78766 -6.64215
C	 0.311953526	 0.561023339	 0.496698861
H	 0.742136078	 1.553369105	 0.481565708
C	 1.142182348	 -0.558074610	 0.536061849
H	 2.216511315	 -0.434250142	 0.552350145
C	 0.587804145	 -1.836687045	 0.554144351
H	 1.231912390	 -2.704841527	 0.585221787
C	 -0.796657722	 -1.996375617	 0.532963001
H	 -1.226774425	 -2.988444274	 0.548637085
C	 -1.626892968	 -0.877473651	 0.494168282
H	 -2.701122115	 -1.001349968	 0.479814980
C	 -1.072665248	 0.401205905	 0.475973972
H	 -1.716973569	 1.269401170	 0.445919947
C	 0.176460621	 0.510920675	 4.686264895
C	 1.622709302	 0.689708033	 4.231303407
H	 2.038566020	 1.622985911	 4.614726387
H	 2.246108621	 -0.130907593	 4.590157276
H	 1.683318435	 0.709099322	 3.142369190
C	 0.122069252	 0.479549537	 6.211130211
H	 -0.903720774	 0.352129114	 6.560217986
H	 0.717475153	 -0.346137330	 6.603683948
H	 0.510363736	 1.407434163	 6.634035793
C	 -0.372919413	 -0.798571299	 4.125968875
H	 -1.407793015	 -0.948846336	 4.438640464
H	 0.213537163	 -1.647545061	 4.481780142
H	 -0.344139583	 -0.799024076	 3.035654632
C	 -0.664912162	 1.675492362	 4.170059420
H	 -0.643371205	 1.711522756	 3.080060857
H	 -1.704701310	 1.571722792	 4.484541902
H	 -0.289259565	 2.626186834	 4.552166331
