29
0  1  0  1  0  1  12  17 -2.09202 -1.84339 -2.57809 -2.82672 -2.66976 -2.76150  2.78958  2.78405  2.78169 -2.17049 -2.18765  5.82103 -0.55890 -5.24498
C	 -2.738660455	 -1.391446250	 -0.000010717
H	 -2.803081365	 -2.471208309	 -0.000036593
C	 -2.696775871	 -0.695692628	 1.207210117
H	 -2.727811997	 -1.235452873	 2.143947099
C	 -2.615181468	 0.695657174	 1.207118469
H	 -2.582150515	 1.235353371	 2.143692232
C	 -2.575372889	 1.391351008	 0.000010720
H	 -2.510423350	 2.470808201	 -0.000000000
C	 -2.616683389	 0.695753774	 -1.207124373
H	 -2.583717202	 1.235433865	 -2.143702319
C	 -2.698385547	 -0.695592897	 -1.207200149
H	 -2.730387700	 -1.235293896	 -2.143948872
C	 1.944135340	 -0.491484209	 -0.002929379
C	 1.853158398	 -1.370754077	 1.241738375
H	 2.663255192	 -2.101714123	 1.261692947
H	 1.919964049	 -0.767116189	 2.148364604
H	 0.904796042	 -1.909245364	 1.263260308
C	 3.275309175	 0.254929063	 -0.003429414
H	 3.363003016	 0.891207333	 -0.885360913
H	 3.365279140	 0.888339061	 0.880348050
H	 4.113635005	 -0.443495195	 -0.005660058
C	 0.793238996	 0.511486028	 -0.000174566
H	 0.837283762	 1.152836156	 -0.882240070
H	 0.839105989	 1.150119384	 0.883755906
H	 -0.170085581	 -0.000001373	 -0.000000185
C	 1.850233373	 -1.367055561	 -1.249990202
H	 0.901720223	 -1.905333168	 -1.270944693
H	 1.915111923	 -0.760773213	 -2.154999216
H	 2.660105495	 -2.098135232	 -1.273869136
