29
0  1  0  1  0  1  12  17 -1.32780 -0.99933 -1.80680 -2.13527 -1.90937 -2.04269  4.78597  4.78066  4.77421 -1.30086 -3.77010 10.12445 -1.12919 -6.52601
C	 -2.738660455	 -1.391446250	 -0.000010717
H	 -2.803081365	 -2.471208309	 -0.000036593
C	 -2.696775871	 -0.695692628	 1.207210117
H	 -2.727811997	 -1.235452873	 2.143947099
C	 -2.615181468	 0.695657174	 1.207118469
H	 -2.582150515	 1.235353371	 2.143692232
C	 -2.575372889	 1.391351008	 0.000010720
H	 -2.510423350	 2.470808201	 -0.000000000
C	 -2.616683389	 0.695753774	 -1.207124373
H	 -2.583717202	 1.235433865	 -2.143702319
C	 -2.698385547	 -0.695592897	 -1.207200149
H	 -2.730387700	 -1.235293896	 -2.143948872
C	 1.326224927	 -2.076713190	 -0.002929564
C	 0.519266414	 -2.437559781	 1.241738190
H	 0.291284842	 -3.504604207	 1.261692762
H	 1.075434985	 -2.193596228	 2.148364419
H	 -0.421261899	 -1.885499532	 1.263260123
C	 2.638224700	 -2.856336912	 -0.003429599
H	 3.233104766	 -2.614142871	 -0.885361098
H	 3.231758832	 -2.617548188	 0.880347865
H	 2.452534465	 -3.931560506	 -0.005660243
C	 1.619374460	 -0.578522601	 -0.000174751
H	 2.196822346	 -0.295991424	 -0.882240255
H	 2.195380666	 -0.298927904	 0.883755721
H	 0.694751088	 -0.000002745	 -0.000000370
C	 0.521006910	 -2.433177377	 -1.249990387
H	 -0.419411747	 -1.880879697	 -1.270944878
H	 1.078502100	 -2.186222675	 -2.154999401
H	 0.292809403	 -3.500087044	 -1.273869321
