29
0  1  0  1  0  1  12  17 -2.14005 -1.88304 -2.58440 -2.84140 -2.67896 -2.77466  2.96981  2.96534  2.96110 -2.21223 -2.31445  6.21895 -0.64899 -5.46775
C	 -2.738660455	 -1.391446250	 -0.000010717
H	 -2.803081365	 -2.471208309	 -0.000036593
C	 -2.696775871	 -0.695692628	 1.207210117
H	 -2.727811997	 -1.235452873	 2.143947099
C	 -2.615181468	 0.695657174	 1.207118469
H	 -2.582150515	 1.235353371	 2.143692232
C	 -2.575372889	 1.391351008	 0.000010720
H	 -2.510423350	 2.470808201	 -0.000000000
C	 -2.616683389	 0.695753774	 -1.207124373
H	 -2.583717202	 1.235433865	 -2.143702319
C	 -2.698385547	 -0.695592897	 -1.207200149
H	 -2.730387700	 -1.235293896	 -2.143948872
C	 1.588821167	 -1.482748455	 0.790076863
C	 0.517519562	 -2.198730026	 1.608779119
H	 0.798599887	 -3.236808392	 1.794102475
H	 0.375693559	 -1.709367106	 2.573777632
H	 -0.437686738	 -2.190895983	 1.082141892
C	 2.910657989	 -1.501922517	 1.552662317
H	 3.692910692	 -0.994736292	 0.985929349
H	 2.810521305	 -0.998358350	 2.515346689
H	 3.238091108	 -2.525938582	 1.739130191
C	 1.158570355	 -0.038702578	 0.544852425
H	 1.910349433	 0.494700542	 -0.039629234
H	 1.027541718	 0.491436635	 1.489877998
H	 0.214509190	 -0.000001373	 -0.000000185
C	 1.762791586	 -2.194064505	 -0.549463072
H	 0.828802929	 -2.185970012	 -1.112897837
H	 2.526482963	 -1.701447865	 -1.153560046
H	 2.065568361	 -3.232134134	 -0.402227838
