29
0  1  0  1  0  1  12  17 -2.64732 -2.48731 -3.01276 -3.17278 -3.08675 -3.13712  0.89250  0.89193  0.89042 -2.79259 -1.05461  2.42166 -0.31381 -3.84582
C	 0.311953526	 0.561023339	 0.496698861
H	 0.742136078	 1.553369105	 0.481565708
C	 1.142182348	 -0.558074610	 0.536061849
H	 2.216511315	 -0.434250142	 0.552350145
C	 0.587804145	 -1.836687045	 0.554144351
H	 1.231912390	 -2.704841527	 0.585221787
C	 -0.796657722	 -1.996375617	 0.532963001
H	 -1.226774425	 -2.988444274	 0.548637085
C	 -1.626892968	 -0.877473651	 0.494168282
H	 -2.701122115	 -1.001349968	 0.479814980
C	 -1.072665248	 0.401205905	 0.475973972
H	 -1.716973569	 1.269401170	 0.445919947
C	 0.160393664	 0.498081312	 5.084216680
C	 1.606642345	 0.676868670	 4.629255192
H	 2.022499063	 1.610146548	 5.012678172
H	 2.230041664	 -0.143746956	 4.988109061
H	 1.667251478	 0.696259959	 3.540320975
C	 0.106002295	 0.466710174	 6.609081996
H	 -0.919787731	 0.339289751	 6.958169771
H	 0.701408196	 -0.358976693	 7.001635733
H	 0.494296779	 1.394594800	 7.031987578
C	 -0.388986370	 -0.811410662	 4.523920660
H	 -1.423859972	 -0.961685699	 4.836592249
H	 0.197470206	 -1.660384424	 4.879731927
H	 -0.360206540	 -0.811863439	 3.433606417
C	 -0.680979119	 1.662652999	 4.568011205
H	 -0.659438162	 1.698683393	 3.478012642
H	 -1.720768267	 1.558883429	 4.882493687
H	 -0.305326522	 2.613347471	 4.950118116
