29
0  1  0  1  0  1  12  17 -2.05769 -1.93040 -2.32067 -2.44796 -2.37702 -2.41869  0.80007  0.79975  0.79818 -2.16376 -0.98836  2.19423 -0.28267 -3.08695
C	 -2.738660455	 -1.391446250	 -0.000010717
H	 -2.803081365	 -2.471208309	 -0.000036593
C	 -2.696775871	 -0.695692628	 1.207210117
H	 -2.727811997	 -1.235452873	 2.143947099
C	 -2.615181468	 0.695657174	 1.207118469
H	 -2.582150515	 1.235353371	 2.143692232
C	 -2.575372889	 1.391351008	 0.000010720
H	 -2.510423350	 2.470808201	 -0.000000000
C	 -2.616683389	 0.695753774	 -1.207124373
H	 -2.583717202	 1.235433865	 -2.143702319
C	 -2.698385547	 -0.695592897	 -1.207200149
H	 -2.730387700	 -1.235293896	 -2.143948872
C	 1.884775550	 -2.076709072	 -0.002929009
C	 1.077817037	 -2.437555663	 1.241738745
H	 0.849835465	 -3.504600089	 1.261693317
H	 1.633985608	 -2.193592110	 2.148364974
H	 0.137288724	 -1.885495414	 1.263260678
C	 3.196775323	 -2.856332794	 -0.003429044
H	 3.791655389	 -2.614138753	 -0.885360543
H	 3.790309455	 -2.617544070	 0.880348420
H	 3.011085088	 -3.931556388	 -0.005659688
C	 2.177925083	 -0.578518482	 -0.000174196
H	 2.755372969	 -0.295987305	 -0.882239700
H	 2.753931289	 -0.298923785	 0.883756276
H	 1.253301711	 0.000001373	 0.000000185
C	 1.079557533	 -2.433173259	 -1.249989832
H	 0.139138876	 -1.880875579	 -1.270944323
H	 1.637052723	 -2.186218557	 -2.154998846
H	 0.851360026	 -3.500082926	 -1.273868766
