29
0  1  0  1  0  1  12  17 -1.91112 -1.70271 -2.21803 -2.42644 -2.29882 -2.37371  2.24491  2.24305  2.24041 -1.97530 -1.83367  4.85599 -0.53604 -4.46158
C	 0.081862187	 -1.391446250	 0.000010717
H	 0.146283097	 -2.471208309	 0.000036593
C	 0.039977603	 -0.695692628	 -1.207210117
H	 0.071013729	 -1.235452873	 -2.143947099
C	 -0.041616800	 0.695657174	 -1.207118469
H	 -0.074647753	 1.235353371	 -2.143692232
C	 -0.081425379	 1.391351008	 -0.000010720
H	 -0.146374918	 2.470808201	 -0.000000000
C	 -0.040114879	 0.695753774	 1.207124373
H	 -0.073081066	 1.235433865	 2.143702319
C	 0.041587279	 -0.695592897	 1.207200149
H	 0.073589432	 -1.235293896	 2.143948872
C	 -4.125673197	 -1.482748455	 2.057129923
C	 -4.299039346	 -2.198730026	 0.720004390
H	 -4.600074243	 -3.236808392	 0.870765414
H	 -5.063839572	 -1.709367106	 0.114680212
H	 -3.365354978	 -2.190895983	 0.156090081
C	 -5.447009983	 -1.501922517	 2.820581463
H	 -5.347331187	 -0.994736292	 3.781398660
H	 -6.230650764	 -0.998358350	 2.252518365
H	 -5.772212459	 -2.525938582	 3.010912925
C	 -3.698177197	 -0.038702578	 1.807134008
H	 -3.567890772	 0.494700542	 2.750434618
H	 -4.451079033	 0.491436635	 1.221147094
H	 -2.754290414	 -0.000001373	 1.261979362
C	 -3.052582793	 -2.194064505	 2.877562693
H	 -2.097639645	 -2.185970012	 2.350422171
H	 -2.911265156	 -1.701447865	 3.840987313
H	 -3.331480634	 -3.232134134	 3.066157455
