29
0  1  0  1  0  1  12  17 -1.89249 -1.77501 -2.11364 -2.23113 -2.16713 -2.20456  0.78633  0.78685  0.78583 -1.99047 -0.83368  1.98069 -0.24577 -2.89171
C	 0.081862187	 -1.391446250	 0.000010717
H	 0.146283097	 -2.471208309	 0.000036593
C	 0.039977603	 -0.695692628	 -1.207210117
H	 0.071013729	 -1.235452873	 -2.143947099
C	 -0.041616800	 0.695657174	 -1.207118469
H	 -0.074647753	 1.235353371	 -2.143692232
C	 -0.081425379	 1.391351008	 -0.000010720
H	 -0.146374918	 2.470808201	 -0.000000000
C	 -0.040114879	 0.695753774	 1.207124373
H	 -0.073081066	 1.235433865	 2.143702319
C	 0.041587279	 -0.695592897	 1.207200149
H	 0.073589432	 -1.235293896	 2.143948872
C	 -4.418531664	 -1.482745709	 -2.184896324
C	 -3.347230059	 -2.198727280	 -3.003598580
H	 -3.628310384	 -3.236805646	 -3.188921936
H	 -3.205404056	 -1.709364360	 -3.968597093
H	 -2.392023758	 -2.190893237	 -2.476961353
C	 -5.740368485	 -1.501919771	 -2.947481778
H	 -6.522621188	 -0.994733546	 -2.380748810
H	 -5.640231802	 -0.998355604	 -3.910166150
H	 -6.067801605	 -2.525935836	 -3.133949652
C	 -3.988280851	 -0.038699832	 -1.939671886
H	 -4.740059930	 0.494703288	 -1.355190227
H	 -3.857252215	 0.491439381	 -2.884697459
H	 -3.044219687	 0.000001373	 -1.394819276
C	 -4.592502083	 -2.194061759	 -0.845356389
H	 -3.658513426	 -2.185967266	 -0.281921624
H	 -5.356193460	 -1.701445119	 -0.241259415
H	 -4.895278858	 -3.232131388	 -0.992591623
