29
0  1  0  1  0  1  12  17 -2.81072 -2.60687 -3.23330 -3.43715 -3.32294 -3.38995  1.44208  1.43901  1.43670 -2.94844 -1.46458  3.54738 -0.42414 -4.60711
C	 0.311953526	 0.561023339	 0.496698861
H	 0.742136078	 1.553369105	 0.481565708
C	 1.142182348	 -0.558074610	 0.536061849
H	 2.216511315	 -0.434250142	 0.552350145
C	 0.587804145	 -1.836687045	 0.554144351
H	 1.231912390	 -2.704841527	 0.585221787
C	 -0.796657722	 -1.996375617	 0.532963001
H	 -1.226774425	 -2.988444274	 0.548637085
C	 -1.626892968	 -0.877473651	 0.494168282
H	 -2.701122115	 -1.001349968	 0.479814980
C	 -1.072665248	 0.401205905	 0.475973972
H	 -1.716973569	 1.269401170	 0.445919947
C	 0.165749317	 0.502361099	 4.951566085
C	 1.611997998	 0.681148457	 4.496604597
H	 2.027854716	 1.614426335	 4.880027577
H	 2.235397317	 -0.139467169	 4.855458466
H	 1.672607131	 0.700539746	 3.407670380
C	 0.111357948	 0.470989961	 6.476431401
H	 -0.914432078	 0.343569538	 6.825519176
H	 0.706763849	 -0.354696906	 6.868985138
H	 0.499652432	 1.398874587	 6.899336983
C	 -0.383630717	 -0.807130875	 4.391270065
H	 -1.418504319	 -0.957405912	 4.703941654
H	 0.202825859	 -1.656104637	 4.747081332
H	 -0.354850887	 -0.807583652	 3.300955822
C	 -0.675623466	 1.666932786	 4.435360610
H	 -0.654082509	 1.702963180	 3.345362047
H	 -1.715412614	 1.563163216	 4.749843092
H	 -0.299970869	 2.617627258	 4.817467521
