29
0  1  0  1  0  1  12  17 -2.04252 -1.92751 -2.31581 -2.43083 -2.36958 -2.40544  0.71022  0.70999  0.70891 -2.16423 -0.73098  1.75938 -0.22664 -2.96599
C	 -2.738660455	 -1.391446250	 -0.000010717
H	 -2.803081365	 -2.471208309	 -0.000036593
C	 -2.696775871	 -0.695692628	 1.207210117
H	 -2.727811997	 -1.235452873	 2.143947099
C	 -2.615181468	 0.695657174	 1.207118469
H	 -2.582150515	 1.235353371	 2.143692232
C	 -2.575372889	 1.391351008	 0.000010720
H	 -2.510423350	 2.470808201	 -0.000000000
C	 -2.616683389	 0.695753774	 -1.207124373
H	 -2.583717202	 1.235433865	 -2.143702319
C	 -2.698385547	 -0.695592897	 -1.207200149
H	 -2.730387700	 -1.235293896	 -2.143948872
C	 2.042146720	 -1.482744336	 0.790077418
C	 0.970845115	 -2.198725908	 1.608779674
H	 1.251925440	 -3.236804274	 1.794103030
H	 0.829019112	 -1.709362988	 2.573778187
H	 0.015638815	 -2.190891865	 1.082142447
C	 3.363983542	 -1.501918398	 1.552662872
H	 4.146236245	 -0.994732173	 0.985929904
H	 3.263846858	 -0.998354232	 2.515347244
H	 3.691416661	 -2.525934464	 1.739130746
C	 1.611895908	 -0.038698460	 0.544852980
H	 2.363674986	 0.494704661	 -0.039628679
H	 1.480867271	 0.491440753	 1.489878553
H	 0.667834743	 0.000002745	 0.000000370
C	 2.216117139	 -2.194060387	 -0.549462517
H	 1.282128482	 -2.185965894	 -1.112897282
H	 2.979808516	 -1.701443747	 -1.153559491
H	 2.518893914	 -3.232130016	 -0.402227283
