29
0  1  0  1  0  1  12  17 -1.71670 -1.58193 -1.98952 -2.12429 -2.04525 -2.09117  1.19804  1.19554  1.19501 -1.79811 -1.17163  2.84965 -0.35370 -3.12243
C	 0.081862187	 -1.391446250	 0.000010717
H	 0.146283097	 -2.471208309	 0.000036593
C	 0.039977603	 -0.695692628	 -1.207210117
H	 0.071013729	 -1.235452873	 -2.143947099
C	 -0.041616800	 0.695657174	 -1.207118469
H	 -0.074647753	 1.235353371	 -2.143692232
C	 -0.081425379	 1.391351008	 -0.000010720
H	 -0.146374918	 2.470808201	 -0.000000000
C	 -0.040114879	 0.695753774	 1.207124373
H	 -0.073081066	 1.235433865	 2.143702319
C	 0.041587279	 -0.695592897	 1.207200149
H	 0.073589432	 -1.235293896	 2.143948872
C	 -4.933779349	 0.836916298	 0.002929194
C	 -4.842802407	 -0.042353570	 -1.241738560
H	 -5.652899201	 -0.773313616	 -1.261693132
H	 -4.909608058	 0.561284318	 -2.148364789
H	 -3.894440051	 -0.580844857	 -1.263260493
C	 -6.264953184	 1.583329570	 0.003429229
H	 -6.352647025	 2.219607840	 0.885360728
H	 -6.354923149	 2.216739568	 -0.880348235
H	 -7.103279014	 0.884905312	 0.005659873
C	 -3.782883004	 1.839886535	 0.000174381
H	 -3.826927771	 2.481236663	 0.882239885
H	 -3.828749997	 2.478519891	 -0.883756091
H	 -2.819558428	 1.328399134	 -0.000000000
C	 -4.839877382	 -0.038655054	 1.249990017
H	 -3.891364232	 -0.576932661	 1.270944508
H	 -4.904755932	 0.567627294	 2.154999031
H	 -5.649749504	 -0.769734725	 1.273868951
