29
0  1  0  1  0  1  12  17 -2.21206 -2.01469 -2.61955 -2.81693 -2.69898 -2.76786  1.83678  1.83161  1.82998 -2.32314 -1.50658  3.95299 -0.40952 -4.36002
C	 -2.738660455	 -1.391446250	 -0.000010717
H	 -2.803081365	 -2.471208309	 -0.000036593
C	 -2.696775871	 -0.695692628	 1.207210117
H	 -2.727811997	 -1.235452873	 2.143947099
C	 -2.615181468	 0.695657174	 1.207118469
H	 -2.582150515	 1.235353371	 2.143692232
C	 -2.575372889	 1.391351008	 0.000010720
H	 -2.510423350	 2.470808201	 -0.000000000
C	 -2.616683389	 0.695753774	 -1.207124373
H	 -2.583717202	 1.235433865	 -2.143702319
C	 -2.698385547	 -0.695592897	 -1.207200149
H	 -2.730387700	 -1.235293896	 -2.143948872
C	 2.075002028	 -0.491482836	 -0.002929194
C	 1.984025086	 -1.370752704	 1.241738560
H	 2.794121880	 -2.101712750	 1.261693132
H	 2.050830737	 -0.767114816	 2.148364789
H	 1.035662730	 -1.909243991	 1.263260493
C	 3.406175863	 0.254930436	 -0.003429229
H	 3.493869704	 0.891208706	 -0.885360728
H	 3.496145828	 0.888340434	 0.880348235
H	 4.244501693	 -0.443493822	 -0.005659873
C	 0.924105684	 0.511487401	 -0.000174381
H	 0.968150450	 1.152837529	 -0.882239885
H	 0.969972677	 1.150120757	 0.883756091
H	 -0.039218893	 0.000000000	 0.000000000
C	 1.981100061	 -1.367054188	 -1.249990017
H	 1.032586911	 -1.905331795	 -1.270944508
H	 2.045978611	 -0.760771840	 -2.154999031
H	 2.790972183	 -2.098133859	 -1.273868951
