29
0  1  0  1  0  1  12  17 -2.03962 -1.91669 -2.33426 -2.45719 -2.39111 -2.42957  0.76103  0.75826  0.75765 -2.17218 -0.71596  1.79878 -0.22705 -3.02795
C	 -2.738660455	 -1.391446250	 -0.000010717
H	 -2.803081365	 -2.471208309	 -0.000036593
C	 -2.696775871	 -0.695692628	 1.207210117
H	 -2.727811997	 -1.235452873	 2.143947099
C	 -2.615181468	 0.695657174	 1.207118469
H	 -2.582150515	 1.235353371	 2.143692232
C	 -2.575372889	 1.391351008	 0.000010720
H	 -2.510423350	 2.470808201	 -0.000000000
C	 -2.616683389	 0.695753774	 -1.207124373
H	 -2.583717202	 1.235433865	 -2.143702319
C	 -2.698385547	 -0.695592897	 -1.207200149
H	 -2.730387700	 -1.235293896	 -2.143948872
C	 2.336735403	 -0.491480090	 -0.002928824
C	 2.245758461	 -1.370749959	 1.241738930
H	 3.055855255	 -2.101710005	 1.261693502
H	 2.312564112	 -0.767112070	 2.148365159
H	 1.297396105	 -1.909241246	 1.263260863
C	 3.667909238	 0.254933181	 -0.003428859
H	 3.755603079	 0.891211452	 -0.885360358
H	 3.757879203	 0.888343179	 0.880348605
H	 4.506235068	 -0.443491076	 -0.005659503
C	 1.185839059	 0.511490147	 -0.000174011
H	 1.229883825	 1.152840274	 -0.882239515
H	 1.231706052	 1.150123503	 0.883756461
H	 0.222514482	 0.000002745	 0.000000370
C	 2.242833436	 -1.367051442	 -1.249989647
H	 1.294320286	 -1.905329049	 -1.270944138
H	 2.307711986	 -0.760769094	 -2.154998661
H	 3.052705558	 -2.098131114	 -1.273868581
