29
0  1  0  1  0  1  12  17 -1.70607 -1.39317 -2.29056 -2.60347 -2.39453 -2.51670  4.18858  4.18369  4.18042 -1.73310 -3.17313  8.52751 -0.76859 -6.31890
C	 -2.738660455	 -1.391446250	 -0.000010717
H	 -2.803081365	 -2.471208309	 -0.000036593
C	 -2.696775871	 -0.695692628	 1.207210117
H	 -2.727811997	 -1.235452873	 2.143947099
C	 -2.615181468	 0.695657174	 1.207118469
H	 -2.582150515	 1.235353371	 2.143692232
C	 -2.575372889	 1.391351008	 0.000010720
H	 -2.510423350	 2.470808201	 -0.000000000
C	 -2.616683389	 0.695753774	 -1.207124373
H	 -2.583717202	 1.235433865	 -2.143702319
C	 -2.698385547	 -0.695592897	 -1.207200149
H	 -2.730387700	 -1.235293896	 -2.143948872
C	 1.813268653	 -0.491485581	 -0.002929564
C	 1.722291711	 -1.370755450	 1.241738190
H	 2.532388505	 -2.101715495	 1.261692762
H	 1.789097362	 -0.767117561	 2.148364419
H	 0.773929355	 -1.909246737	 1.263260123
C	 3.144442488	 0.254927690	 -0.003429599
H	 3.232136329	 0.891205961	 -0.885361098
H	 3.234412453	 0.888337688	 0.880347865
H	 3.982768318	 -0.443496567	 -0.005660243
C	 0.662372309	 0.511484655	 -0.000174751
H	 0.706417075	 1.152834783	 -0.882240255
H	 0.708239302	 1.150118012	 0.883755721
H	 -0.300952268	 -0.000002745	 -0.000000370
C	 1.719366686	 -1.367056934	 -1.249990387
H	 0.770853536	 -1.905334540	 -1.270944878
H	 1.784245236	 -0.760774585	 -2.154999401
H	 2.529238808	 -2.098136604	 -1.273869321
