29
0  1  0  1  0  1  12  17  8.81300  9.76332  7.61647  6.66615  7.42479  6.97983 23.38847 23.38533 23.37022  9.05453 -16.06691 44.75414 -3.97826 -15.65445
C	 -2.738660455	 -1.391446250	 -0.000010717
H	 -2.803081365	 -2.471208309	 -0.000036593
C	 -2.696775871	 -0.695692628	 1.207210117
H	 -2.727811997	 -1.235452873	 2.143947099
C	 -2.615181468	 0.695657174	 1.207118469
H	 -2.582150515	 1.235353371	 2.143692232
C	 -2.575372889	 1.391351008	 0.000010720
H	 -2.510423350	 2.470808201	 -0.000000000
C	 -2.616683389	 0.695753774	 -1.207124373
H	 -2.583717202	 1.235433865	 -2.143702319
C	 -2.698385547	 -0.695592897	 -1.207200149
H	 -2.730387700	 -1.235293896	 -2.143948872
C	 0.832850621	 -1.482755318	 -0.795151671
C	 1.006216770	 -2.198736889	 0.541973862
H	 1.307251667	 -3.236815255	 0.391212838
H	 1.771016996	 -1.709373970	 1.147298040
H	 0.072532403	 -2.190902846	 1.105888171
C	 2.154187408	 -1.501929381	 -1.558603211
H	 2.054508612	 -0.994743156	 -2.519420408
H	 2.937828188	 -0.998365214	 -0.990540113
H	 2.479389883	 -2.525945445	 -1.748934673
C	 0.405354622	 -0.038709441	 -0.545155756
H	 0.275068196	 0.494693679	 -1.488456366
H	 1.158256457	 0.491429772	 0.040831158
H	 -0.538532162	 -0.000008236	 -0.000001110
C	 -0.240239783	 -2.194071368	 -1.615584441
H	 -1.195182931	 -2.185976875	 -1.088443919
H	 -0.381557420	 -1.701454729	 -2.579009061
H	 0.038658058	 -3.232140997	 -1.804179203
