29
0  1  0  1  0  1  12  17  0.83885  1.22859  0.22592 -0.16382  0.12535 -0.04309  7.74309  7.74234  7.73936  0.93103 -5.64525 15.53629 -1.66538 -7.29462
C	 0.081862187	 -1.391446250	 0.000010717
H	 0.146283097	 -2.471208309	 0.000036593
C	 0.039977603	 -0.695692628	 -1.207210117
H	 0.071013729	 -1.235452873	 -2.143947099
C	 -0.041616800	 0.695657174	 -1.207118469
H	 -0.074647753	 1.235353371	 -2.143692232
C	 -0.081425379	 1.391351008	 -0.000010720
H	 -0.146374918	 2.470808201	 -0.000000000
C	 -0.040114879	 0.695753774	 1.207124373
H	 -0.073081066	 1.235433865	 2.143702319
C	 0.041587279	 -0.695592897	 1.207200149
H	 0.073589432	 -1.235293896	 2.143948872
C	 -4.369916788	 0.571230980	 0.002929934
C	 -4.278939846	 -0.308038888	 -1.241737820
H	 -5.089036640	 -1.038998934	 -1.261692392
H	 -4.345745497	 0.295599000	 -2.148364049
H	 -3.330577490	 -0.846530175	 -1.263259753
C	 -5.701090623	 1.317644252	 0.003429969
H	 -5.788784464	 1.953922522	 0.885361468
H	 -5.791060588	 1.951054250	 -0.880347495
H	 -6.539416453	 0.619219994	 0.005660613
C	 -3.219020443	 1.574201217	 0.000175121
H	 -3.263065210	 2.215551345	 0.882240625
H	 -3.264887436	 2.212834573	 -0.883755351
H	 -2.255695867	 1.062713816	 0.000000740
C	 -4.276014821	 -0.304340372	 1.249990757
H	 -3.327501671	 -0.842617979	 1.270945248
H	 -4.340893371	 0.301941976	 2.154999771
H	 -5.085886943	 -1.035420043	 1.273869691
