29
0  1  0  1  0  1  12  17 -1.99875 -1.86938 -2.19907 -2.32844 -2.26141 -2.30087  0.90137  0.90161  0.89993 -2.09856 -0.82577  2.10341 -0.24696 -3.12925
C	 0.081862187	 -1.391446250	 0.000010717
H	 0.146283097	 -2.471208309	 0.000036593
C	 0.039977603	 -0.695692628	 -1.207210117
H	 0.071013729	 -1.235452873	 -2.143947099
C	 -0.041616800	 0.695657174	 -1.207118469
H	 -0.074647753	 1.235353371	 -2.143692232
C	 -0.081425379	 1.391351008	 -0.000010720
H	 -0.146374918	 2.470808201	 -0.000000000
C	 -0.040114879	 0.695753774	 1.207124373
H	 -0.073081066	 1.235433865	 2.143702319
C	 0.041587279	 -0.695592897	 1.207200149
H	 0.073589432	 -1.235293896	 2.143948872
C	 -3.838342669	 -3.471528163	 0.002929009
C	 -3.031384156	 -3.832374754	 -1.241738745
H	 -2.803402584	 -4.899419180	 -1.261693317
H	 -3.587552727	 -3.588411201	 -2.148364974
H	 -2.090855843	 -3.280314505	 -1.263260678
C	 -5.150342442	 -4.251151885	 0.003429044
H	 -5.745222508	 -4.008957844	 0.885360543
H	 -5.743876574	 -4.012363161	 -0.880348420
H	 -4.964652207	 -5.326375479	 0.005659688
C	 -4.131492201	 -1.973337573	 0.000174196
H	 -4.708940088	 -1.690806396	 0.882239700
H	 -4.707498407	 -1.693742876	 -0.883756276
H	 -3.206868830	 -1.394817718	 -0.000000185
C	 -3.033124652	 -3.827992350	 1.249989832
H	 -2.092705995	 -3.275694670	 1.270944323
H	 -3.590619842	 -3.581037648	 2.154998846
H	 -2.804927145	 -4.894902017	 1.273868766
