29
0  1  0  1  0  1  12  17  6.76383  7.56448  5.48479  4.68415  5.32130  4.94916 19.43079 19.43466 19.42569  7.00670 -13.64251 36.85530 -2.77720 -13.42889
C	 -2.738660455	 -1.391446250	 -0.000010717
H	 -2.803081365	 -2.471208309	 -0.000036593
C	 -2.696775871	 -0.695692628	 1.207210117
H	 -2.727811997	 -1.235452873	 2.143947099
C	 -2.615181468	 0.695657174	 1.207118469
H	 -2.582150515	 1.235353371	 2.143692232
C	 -2.575372889	 1.391351008	 0.000010720
H	 -2.510423350	 2.470808201	 -0.000000000
C	 -2.616683389	 0.695753774	 -1.207124373
H	 -2.583717202	 1.235433865	 -2.143702319
C	 -2.698385547	 -0.695592897	 -1.207200149
H	 -2.730387700	 -1.235293896	 -2.143948872
C	 1.289801902	 -0.491491072	 -0.002930304
C	 1.198824960	 -1.370760941	 1.241737450
H	 2.008921754	 -2.101720986	 1.261692022
H	 1.265630611	 -0.767123053	 2.148363679
H	 0.250462604	 -1.909252228	 1.263259383
C	 2.620975737	 0.254922200	 -0.003430339
H	 2.708669578	 0.891200469	 -0.885361838
H	 2.710945702	 0.888332197	 0.880347125
H	 3.459301567	 -0.443502058	 -0.005660983
C	 0.138905558	 0.511479164	 -0.000175491
H	 0.182950324	 1.152829292	 -0.882240995
H	 0.184772551	 1.150112521	 0.883754981
H	 -0.824419019	 -0.000008236	 -0.000001110
C	 1.195899935	 -1.367062425	 -1.249991127
H	 0.247386785	 -1.905340031	 -1.270945618
H	 1.260778485	 -0.760780077	 -2.155000141
H	 2.005772057	 -2.098142095	 -1.273870061
