29
0  1  0  1  0  1  12  17 -2.14362 -1.96803 -2.45939 -2.63498 -2.53115 -2.59228  1.53036  1.52789  1.52526 -2.23294 -1.52343  3.68395 -0.44417 -3.94929
C	 -2.738660455	 -1.391446250	 -0.000010717
H	 -2.803081365	 -2.471208309	 -0.000036593
C	 -2.696775871	 -0.695692628	 1.207210117
H	 -2.727811997	 -1.235452873	 2.143947099
C	 -2.615181468	 0.695657174	 1.207118469
H	 -2.582150515	 1.235353371	 2.143692232
C	 -2.575372889	 1.391351008	 0.000010720
H	 -2.510423350	 2.470808201	 -0.000000000
C	 -2.616683389	 0.695753774	 -1.207124373
H	 -2.583717202	 1.235433865	 -2.143702319
C	 -2.698385547	 -0.695592897	 -1.207200149
H	 -2.730387700	 -1.235293896	 -2.143948872
C	 1.698592009	 -2.076710445	 -0.002929194
C	 0.891633496	 -2.437557036	 1.241738560
H	 0.663651924	 -3.504601462	 1.261693132
H	 1.447802067	 -2.193593483	 2.148364789
H	 -0.048894817	 -1.885496787	 1.263260493
C	 3.010591782	 -2.856334167	 -0.003429229
H	 3.605471848	 -2.614140126	 -0.885360728
H	 3.604125914	 -2.617545443	 0.880348235
H	 2.824901547	 -3.931557761	 -0.005659873
C	 1.991741542	 -0.578519855	 -0.000174381
H	 2.569189428	 -0.295988678	 -0.882239885
H	 2.567747748	 -0.298925158	 0.883756091
H	 1.067118170	 0.000000000	 0.000000000
C	 0.893373992	 -2.433174632	 -1.249990017
H	 -0.047044665	 -1.880876952	 -1.270944508
H	 1.450869182	 -2.186219930	 -2.154999031
H	 0.665176485	 -3.500084299	 -1.273868951
