29
0  1  0  1  0  1  12  17  0.55050  1.04751 -0.31013 -0.80714 -0.44018 -0.65466  9.17663  9.17574  9.17020  0.67957 -6.62843 17.97228 -1.46757 -9.19670
C	 -2.738660455	 -1.391446250	 -0.000010717
H	 -2.803081365	 -2.471208309	 -0.000036593
C	 -2.696775871	 -0.695692628	 1.207210117
H	 -2.727811997	 -1.235452873	 2.143947099
C	 -2.615181468	 0.695657174	 1.207118469
H	 -2.582150515	 1.235353371	 2.143692232
C	 -2.575372889	 1.391351008	 0.000010720
H	 -2.510423350	 2.470808201	 -0.000000000
C	 -2.616683389	 0.695753774	 -1.207124373
H	 -2.583717202	 1.235433865	 -2.143702319
C	 -2.698385547	 -0.695592897	 -1.207200149
H	 -2.730387700	 -1.235293896	 -2.143948872
C	 1.551535277	 -0.491488327	 -0.002929934
C	 1.460558335	 -1.370758195	 1.241737820
H	 2.270655129	 -2.101718241	 1.261692392
H	 1.527363986	 -0.767120307	 2.148364049
H	 0.512195979	 -1.909249482	 1.263259753
C	 2.882709112	 0.254924945	 -0.003429969
H	 2.970402953	 0.891203215	 -0.885361468
H	 2.972679077	 0.888334943	 0.880347495
H	 3.721034942	 -0.443499313	 -0.005660613
C	 0.400638933	 0.511481910	 -0.000175121
H	 0.444683699	 1.152832038	 -0.882240625
H	 0.446505926	 1.150115266	 0.883755351
H	 -0.562685644	 -0.000005491	 -0.000000740
C	 1.457633310	 -1.367059679	 -1.249990757
H	 0.509120160	 -1.905337286	 -1.270945248
H	 1.522511860	 -0.760777331	 -2.154999771
H	 2.267505432	 -2.098139350	 -1.273869691
