29
0  1  0  1  0  1  12  17  8.80146  9.75233  7.60338  6.65252  7.41158  6.96635 23.38771 23.38459 23.36944  9.04582 -16.06602 44.74771 -3.97190 -15.66398
C	 -2.738660455	 -1.391446250	 -0.000010717
H	 -2.803081365	 -2.471208309	 -0.000036593
C	 -2.696775871	 -0.695692628	 1.207210117
H	 -2.727811997	 -1.235452873	 2.143947099
C	 -2.615181468	 0.695657174	 1.207118469
H	 -2.582150515	 1.235353371	 2.143692232
C	 -2.575372889	 1.391351008	 0.000010720
H	 -2.510423350	 2.470808201	 -0.000000000
C	 -2.616683389	 0.695753774	 -1.207124373
H	 -2.583717202	 1.235433865	 -2.143702319
C	 -2.698385547	 -0.695592897	 -1.207200149
H	 -2.730387700	 -1.235293896	 -2.143948872
C	 0.833278579	 -1.482755318	 0.790075938
C	 -0.238023026	 -2.198736889	 1.608778194
H	 0.043057299	 -3.236815255	 1.794101550
H	 -0.379849029	 -1.709373970	 2.573776707
H	 -1.193229326	 -2.190902846	 1.082140967
C	 2.155115401	 -1.501929381	 1.552661392
H	 2.937368104	 -0.994743156	 0.985928424
H	 2.054978717	 -0.998365214	 2.515345764
H	 2.482548520	 -2.525945445	 1.739129266
C	 0.403027767	 -0.038709441	 0.544851500
H	 1.154806845	 0.494693679	 -0.039630159
H	 0.271999130	 0.491429772	 1.489877073
H	 -0.541033398	 -0.000008236	 -0.000001110
C	 1.007248998	 -2.194071368	 -0.549463997
H	 0.073260341	 -2.185976875	 -1.112898762
H	 1.770940375	 -1.701454729	 -1.153560971
H	 1.310025773	 -3.232140997	 -0.402228763
