29
0  1  0  1  0  1  12  17 -1.97699 -1.73659 -2.36274 -2.60315 -2.45015 -2.54041  2.75882  2.75444  2.75016 -2.02467 -2.38514  6.13552 -0.70570 -5.06934
C	 -2.738660455	 -1.391446250	 -0.000010717
H	 -2.803081365	 -2.471208309	 -0.000036593
C	 -2.696775871	 -0.695692628	 1.207210117
H	 -2.727811997	 -1.235452873	 2.143947099
C	 -2.615181468	 0.695657174	 1.207118469
H	 -2.582150515	 1.235353371	 2.143692232
C	 -2.575372889	 1.391351008	 0.000010720
H	 -2.510423350	 2.470808201	 -0.000000000
C	 -2.616683389	 0.695753774	 -1.207124373
H	 -2.583717202	 1.235433865	 -2.143702319
C	 -2.698385547	 -0.695592897	 -1.207200149
H	 -2.730387700	 -1.235293896	 -2.143948872
C	 1.512408468	 -2.076711818	 -0.002929379
C	 0.705449955	 -2.437558409	 1.241738375
H	 0.477468383	 -3.504602835	 1.261692947
H	 1.261618526	 -2.193594856	 2.148364604
H	 -0.235078358	 -1.885498160	 1.263260308
C	 2.824408241	 -2.856335540	 -0.003429414
H	 3.419288307	 -2.614141499	 -0.885360913
H	 3.417942373	 -2.617546816	 0.880348050
H	 2.638718006	 -3.931559134	 -0.005660058
C	 1.805558001	 -0.578521228	 -0.000174566
H	 2.383005887	 -0.295990051	 -0.882240070
H	 2.381564207	 -0.298926531	 0.883755906
H	 0.880934629	 -0.000001373	 -0.000000185
C	 0.707190451	 -2.433176005	 -1.249990202
H	 -0.233228206	 -1.880878325	 -1.270944693
H	 1.264685641	 -2.186221303	 -2.154999216
H	 0.478992944	 -3.500085672	 -1.273869136
