29
0  1  0  1  0  1  12  17 -1.62808 -1.45205 -1.95637 -2.13240 -2.02261 -2.08645  1.97909  1.97601  1.97513 -1.68787 -1.71879  4.39759 -0.51802 -3.84865
C	 0.081862187	 -1.391446250	 0.000010717
H	 0.146283097	 -2.471208309	 0.000036593
C	 0.039977603	 -0.695692628	 -1.207210117
H	 0.071013729	 -1.235452873	 -2.143947099
C	 -0.041616800	 0.695657174	 -1.207118469
H	 -0.074647753	 1.235353371	 -2.143692232
C	 -0.081425379	 1.391351008	 -0.000010720
H	 -0.146374918	 2.470808201	 -0.000000000
C	 -0.040114879	 0.695753774	 1.207124373
H	 -0.073081066	 1.235433865	 2.143702319
C	 0.041587279	 -0.695592897	 1.207200149
H	 0.073589432	 -1.235293896	 2.143948872
C	 -4.792813709	 0.770494969	 0.002929379
C	 -4.701836767	 -0.108774899	 -1.241738375
H	 -5.511933561	 -0.839734945	 -1.261692947
H	 -4.768642418	 0.494862989	 -2.148364604
H	 -3.753474411	 -0.647266186	 -1.263260308
C	 -6.123987544	 1.516908241	 0.003429414
H	 -6.211681385	 2.153186511	 0.885360913
H	 -6.213957509	 2.150318239	 -0.880348050
H	 -6.962313374	 0.818483983	 0.005660058
C	 -3.641917364	 1.773465206	 0.000174566
H	 -3.685962131	 2.414815334	 0.882240070
H	 -3.687784357	 2.412098562	 -0.883755906
H	 -2.678592788	 1.261977805	 0.000000185
C	 -4.698911742	 -0.105076383	 1.249990202
H	 -3.750398592	 -0.643353990	 1.270944693
H	 -4.763790292	 0.501205965	 2.154999216
H	 -5.508783864	 -0.836156054	 1.273869136
