29
0  1  0  1  0  1  12  17 -2.26173 -2.06463 -2.63623 -2.83333 -2.71559 -2.78487  1.88803  1.88522  1.88234 -2.36459 -1.56752  4.10438 -0.45321 -4.44825
C	 -2.738660455	 -1.391446250	 -0.000010717
H	 -2.803081365	 -2.471208309	 -0.000036593
C	 -2.696775871	 -0.695692628	 1.207210117
H	 -2.727811997	 -1.235452873	 2.143947099
C	 -2.615181468	 0.695657174	 1.207118469
H	 -2.582150515	 1.235353371	 2.143692232
C	 -2.575372889	 1.391351008	 0.000010720
H	 -2.510423350	 2.470808201	 -0.000000000
C	 -2.616683389	 0.695753774	 -1.207124373
H	 -2.583717202	 1.235433865	 -2.143702319
C	 -2.698385547	 -0.695592897	 -1.207200149
H	 -2.730387700	 -1.235293896	 -2.143948872
C	 1.739929685	 -1.482747082	 0.790077048
C	 0.668628080	 -2.198728653	 1.608779304
H	 0.949708405	 -3.236807019	 1.794102660
H	 0.526802077	 -1.709365733	 2.573777817
H	 -0.286578220	 -2.190894610	 1.082142077
C	 3.061766507	 -1.501921144	 1.552662502
H	 3.844019210	 -0.994734919	 0.985929534
H	 2.961629823	 -0.998356977	 2.515346874
H	 3.389199626	 -2.525937209	 1.739130376
C	 1.309678873	 -0.038701205	 0.544852610
H	 2.061457951	 0.494701915	 -0.039629049
H	 1.178650236	 0.491438008	 1.489878183
H	 0.365617708	 0.000000000	 0.000000000
C	 1.913900104	 -2.194063132	 -0.549462887
H	 0.979911447	 -2.185968639	 -1.112897652
H	 2.677591481	 -1.701446492	 -1.153559861
H	 2.216676879	 -3.232132761	 -0.402227653
