29
0  1  0  1  0  1  12  17 -1.97966 -1.82312 -2.23861 -2.39516 -2.30494 -2.35781  1.35184  1.35129  1.34959 -2.06717 -1.22889  3.10844 -0.36138 -3.58534
C	 0.081862187	 -1.391446250	 0.000010717
H	 0.146283097	 -2.471208309	 0.000036593
C	 0.039977603	 -0.695692628	 -1.207210117
H	 0.071013729	 -1.235452873	 -2.143947099
C	 -0.041616800	 0.695657174	 -1.207118469
H	 -0.074647753	 1.235353371	 -2.143692232
C	 -0.081425379	 1.391351008	 -0.000010720
H	 -0.146374918	 2.470808201	 -0.000000000
C	 -0.040114879	 0.695753774	 1.207124373
H	 -0.073081066	 1.235433865	 2.143702319
C	 0.041587279	 -0.695592897	 1.207200149
H	 0.073589432	 -1.235293896	 2.143948872
C	 -4.273580518	 -1.482747082	 -2.118476182
C	 -3.202278913	 -2.198728653	 -2.937178438
H	 -3.483359238	 -3.236807019	 -3.122501794
H	 -3.060452910	 -1.709365733	 -3.902176951
H	 -2.247072612	 -2.190894610	 -2.410541211
C	 -5.595417339	 -1.501921144	 -2.881061636
H	 -6.377670042	 -0.994734919	 -2.314328668
H	 -5.495280656	 -0.998356977	 -3.843746008
H	 -5.922850459	 -2.525937209	 -3.067529510
C	 -3.843329705	 -0.038701205	 -1.873251744
H	 -4.595108784	 0.494701915	 -1.288770085
H	 -3.712301069	 0.491438008	 -2.818277317
H	 -2.899268541	 -0.000000000	 -1.328399134
C	 -4.447550937	 -2.194063132	 -0.778936247
H	 -3.513562280	 -2.185968639	 -0.215501482
H	 -5.211242314	 -1.701446492	 -0.174839273
H	 -4.750327712	 -3.232132761	 -0.926171481
