29
0  1  0  1  0  1  12  17 -2.03504 -1.79919 -2.30825 -2.54409 -2.40369 -2.48666  2.55225  2.54892  2.54465 -2.10284 -1.91135  5.31179 -0.55879 -4.94449
C	 0.081862187	 -1.391446250	 0.000010717
H	 0.146283097	 -2.471208309	 0.000036593
C	 0.039977603	 -0.695692628	 -1.207210117
H	 0.071013729	 -1.235452873	 -2.143947099
C	 -0.041616800	 0.695657174	 -1.207118469
H	 -0.074647753	 1.235353371	 -2.143692232
C	 -0.081425379	 1.391351008	 -0.000010720
H	 -0.146374918	 2.470808201	 -0.000000000
C	 -0.040114879	 0.695753774	 1.207124373
H	 -0.073081066	 1.235433865	 2.143702319
C	 0.041587279	 -0.695592897	 1.207200149
H	 0.073589432	 -1.235293896	 2.143948872
C	 -3.532949983	 -3.338690995	 0.002929379
C	 -2.725991470	 -3.699537586	 -1.241738375
H	 -2.498009898	 -4.766582012	 -1.261692947
H	 -3.282160041	 -3.455574033	 -2.148364604
H	 -1.785463157	 -3.147477337	 -1.263260308
C	 -4.844949756	 -4.118314717	 0.003429414
H	 -5.439829822	 -3.876120676	 0.885360913
H	 -5.438483888	 -3.879525993	 -0.880348050
H	 -4.659259521	 -5.193538311	 0.005660058
C	 -3.826099515	 -1.840500405	 0.000174566
H	 -4.403547402	 -1.557969228	 0.882240070
H	 -4.402105721	 -1.560905708	 -0.883755906
H	 -2.901476144	 -1.261980550	 0.000000185
C	 -2.727731966	 -3.695155182	 1.249990202
H	 -1.787313309	 -3.142857502	 1.270944693
H	 -3.285227156	 -3.448200480	 2.154999216
H	 -2.499534459	 -4.762064849	 1.273869136
