29
0  1  0  1  0  1  12  17 -2.26536 -1.85812 -2.95796 -3.36520 -3.09886 -3.25564  5.16183  5.15184  5.14522 -2.28188 -4.08438 10.86824 -1.08015 -7.98559
C	 0.311953526	 0.561023339	 0.496698861
H	 0.742136078	 1.553369105	 0.481565708
C	 1.142182348	 -0.558074610	 0.536061849
H	 2.216511315	 -0.434250142	 0.552350145
C	 0.587804145	 -1.836687045	 0.554144351
H	 1.231912390	 -2.704841527	 0.585221787
C	 -0.796657722	 -1.996375617	 0.532963001
H	 -1.226774425	 -2.988444274	 0.548637085
C	 -1.626892968	 -0.877473651	 0.494168282
H	 -2.701122115	 -1.001349968	 0.479814980
C	 -1.072665248	 0.401205905	 0.475973972
H	 -1.716973569	 1.269401170	 0.445919947
C	 0.181816274	 0.515200462	 4.553614300
C	 1.628064955	 0.693987820	 4.098652812
H	 2.043921673	 1.627265698	 4.482075792
H	 2.251464274	 -0.126627806	 4.457506681
H	 1.688674088	 0.713379109	 3.009718595
C	 0.127424905	 0.483829324	 6.078479616
H	 -0.898365121	 0.356408901	 6.427567391
H	 0.722830806	 -0.341857543	 6.471033353
H	 0.515719389	 1.411713950	 6.501385198
C	 -0.367563760	 -0.794291512	 3.993318280
H	 -1.402437362	 -0.944566549	 4.305989869
H	 0.218892816	 -1.643265274	 4.349129547
H	 -0.338783930	 -0.794744289	 2.903004037
C	 -0.659556509	 1.679772149	 4.037408825
H	 -0.638015552	 1.715802543	 2.947410262
H	 -1.699345657	 1.576002579	 4.351891307
H	 -0.283903912	 2.630466621	 4.419515736
