29
0  1  0  1  0  1  12  17 -2.19706 -2.04669 -2.51504 -2.66541 -2.58075 -2.63046  1.17206  1.17074  1.16891 -2.31522 -1.06449  2.68849 -0.31860 -3.62061
C	 -2.738660455	 -1.391446250	 -0.000010717
H	 -2.803081365	 -2.471208309	 -0.000036593
C	 -2.696775871	 -0.695692628	 1.207210117
H	 -2.727811997	 -1.235452873	 2.143947099
C	 -2.615181468	 0.695657174	 1.207118469
H	 -2.582150515	 1.235353371	 2.143692232
C	 -2.575372889	 1.391351008	 0.000010720
H	 -2.510423350	 2.470808201	 -0.000000000
C	 -2.616683389	 0.695753774	 -1.207124373
H	 -2.583717202	 1.235433865	 -2.143702319
C	 -2.698385547	 -0.695592897	 -1.207200149
H	 -2.730387700	 -1.235293896	 -2.143948872
C	 1.891860862	 -1.482745709	 -0.795150376
C	 2.065227011	 -2.198727280	 0.541975157
H	 2.366261908	 -3.236805646	 0.391214133
H	 2.830027237	 -1.709364360	 1.147299335
H	 1.131542644	 -2.190893237	 1.105889466
C	 3.213197649	 -1.501919771	 -1.558601916
H	 3.113518853	 -0.994733546	 -2.519419113
H	 3.996838429	 -0.998355604	 -0.990538818
H	 3.538400124	 -2.525935836	 -1.748933378
C	 1.464364863	 -0.038699832	 -0.545154461
H	 1.334078437	 0.494703288	 -1.488455071
H	 2.217266698	 0.491439381	 0.040832453
H	 0.520478079	 0.000001373	 0.000000185
C	 0.818770458	 -2.194061759	 -1.615583146
H	 -0.136172690	 -2.185967266	 -1.088442624
H	 0.677452821	 -1.701445119	 -2.579007766
H	 1.097668299	 -3.232131388	 -1.804177908
