29
0  1  0  1  0  1  12  17 -2.25801 -2.06126 -2.63173 -2.82848 -2.71096 -2.78011  1.88431  1.88150  1.87863 -2.36062 -1.56518  4.09768 -0.45294 -4.44018
C	 -2.738660455	 -1.391446250	 -0.000010717
H	 -2.803081365	 -2.471208309	 -0.000036593
C	 -2.696775871	 -0.695692628	 1.207210117
H	 -2.727811997	 -1.235452873	 2.143947099
C	 -2.615181468	 0.695657174	 1.207118469
H	 -2.582150515	 1.235353371	 2.143692232
C	 -2.575372889	 1.391351008	 0.000010720
H	 -2.510423350	 2.470808201	 -0.000000000
C	 -2.616683389	 0.695753774	 -1.207124373
H	 -2.583717202	 1.235433865	 -2.143702319
C	 -2.698385547	 -0.695592897	 -1.207200149
H	 -2.730387700	 -1.235293896	 -2.143948872
C	 1.740573685	 -1.482747082	 -0.795150561
C	 1.913939834	 -2.198728653	 0.541974972
H	 2.214974731	 -3.236807019	 0.391213948
H	 2.678740060	 -1.709365733	 1.147299150
H	 0.980255467	 -2.190894610	 1.105889281
C	 3.061910472	 -1.501921144	 -1.558602101
H	 2.962231676	 -0.994734919	 -2.519419298
H	 3.845551252	 -0.998356977	 -0.990539003
H	 3.387112947	 -2.525937209	 -1.748933563
C	 1.313077686	 -0.038701205	 -0.545154646
H	 1.182791260	 0.494701915	 -1.488455256
H	 2.065979521	 0.491438008	 0.040832268
H	 0.369190902	 0.000000000	 0.000000000
C	 0.667483281	 -2.194063132	 -1.615583331
H	 -0.287459867	 -2.185968639	 -1.088442809
H	 0.526165644	 -1.701446492	 -2.579007951
H	 0.946381122	 -3.232132761	 -1.804178093
