29
0  1  0  1  0  1  12  17 -2.03883 -1.92414 -2.31158 -2.42627 -2.36526 -2.40098  0.70789  0.70765  0.70658 -2.16034 -0.72958  1.75507 -0.22630 -2.95953
C	 -2.738660455	 -1.391446250	 -0.000010717
H	 -2.803081365	 -2.471208309	 -0.000036593
C	 -2.696775871	 -0.695692628	 1.207210117
H	 -2.727811997	 -1.235452873	 2.143947099
C	 -2.615181468	 0.695657174	 1.207118469
H	 -2.582150515	 1.235353371	 2.143692232
C	 -2.575372889	 1.391351008	 0.000010720
H	 -2.510423350	 2.470808201	 -0.000000000
C	 -2.616683389	 0.695753774	 -1.207124373
H	 -2.583717202	 1.235433865	 -2.143702319
C	 -2.698385547	 -0.695592897	 -1.207200149
H	 -2.730387700	 -1.235293896	 -2.143948872
C	 2.043148040	 -1.482744336	 -0.795150191
C	 2.216514189	 -2.198725908	 0.541975342
H	 2.517549086	 -3.236804274	 0.391214318
H	 2.981314415	 -1.709362988	 1.147299520
H	 1.282829822	 -2.190891865	 1.105889651
C	 3.364484827	 -1.501918398	 -1.558601731
H	 3.264806031	 -0.994732173	 -2.519418928
H	 4.148125607	 -0.998354232	 -0.990538633
H	 3.689687302	 -2.525934464	 -1.748933193
C	 1.615652041	 -0.038698460	 -0.545154276
H	 1.485365615	 0.494704661	 -1.488454886
H	 2.368553876	 0.491440753	 0.040832638
H	 0.671765257	 0.000002745	 0.000000370
C	 0.970057636	 -2.194060387	 -1.615582961
H	 0.015114488	 -2.185965894	 -1.088442439
H	 0.828739999	 -1.701443747	 -2.579007581
H	 1.248955477	 -3.232130016	 -1.804177723
