29
0  1  0  1  0  1  12  17  7.10423  7.77702  6.15002  5.47724  6.01709  5.70147 17.78423 17.78602 17.77767  7.19880 -12.44530 34.51877 -3.57677 -11.29789
C	 0.081862187	 -1.391446250	 0.000010717
H	 0.146283097	 -2.471208309	 0.000036593
C	 0.039977603	 -0.695692628	 -1.207210117
H	 0.071013729	 -1.235452873	 -2.143947099
C	 -0.041616800	 0.695657174	 -1.207118469
H	 -0.074647753	 1.235353371	 -2.143692232
C	 -0.081425379	 1.391351008	 -0.000010720
H	 -0.146374918	 2.470808201	 -0.000000000
C	 -0.040114879	 0.695753774	 1.207124373
H	 -0.073081066	 1.235433865	 2.143702319
C	 0.041587279	 -0.695592897	 1.207200149
H	 0.073589432	 -1.235293896	 2.143948872
C	 -4.087985507	 0.438388321	 0.002930304
C	 -3.997008565	 -0.440881547	 -1.241737450
H	 -4.807105359	 -1.171841593	 -1.261692022
H	 -4.063814216	 0.162756341	 -2.148363679
H	 -3.048646209	 -0.979372834	 -1.263259383
C	 -5.419159342	 1.184801593	 0.003430339
H	 -5.506853183	 1.821079863	 0.885361838
H	 -5.509129307	 1.818211591	 -0.880347125
H	 -6.257485172	 0.486377335	 0.005660983
C	 -2.937089162	 1.441358558	 0.000175491
H	 -2.981133929	 2.082708686	 0.882240995
H	 -2.982956155	 2.079991914	 -0.883754981
H	 -1.973764586	 0.929871157	 0.000001110
C	 -3.994083540	 -0.437183031	 1.249991127
H	 -3.045570390	 -0.975460638	 1.270945618
H	 -4.058962090	 0.169099317	 2.155000141
H	 -4.803955662	 -1.168262702	 1.273870061
