29
0  1  0  1  0  1  12  17 -1.54073 -1.46209 -1.73593 -1.81457 -1.77315 -1.79719  0.37851  0.37785  0.37761 -1.63306 -0.56953  1.17984 -0.16951 -2.07386
C	 0.081862187	 -1.391446250	 0.000010717
H	 0.146283097	 -2.471208309	 0.000036593
C	 0.039977603	 -0.695692628	 -1.207210117
H	 0.071013729	 -1.235452873	 -2.143947099
C	 -0.041616800	 0.695657174	 -1.207118469
H	 -0.074647753	 1.235353371	 -2.143692232
C	 -0.081425379	 1.391351008	 -0.000010720
H	 -0.146374918	 2.470808201	 -0.000000000
C	 -0.040114879	 0.695753774	 1.207124373
H	 -0.073081066	 1.235433865	 2.143702319
C	 0.041587279	 -0.695592897	 1.207200149
H	 0.073589432	 -1.235293896	 2.143948872
C	 -5.215710630	 0.969758957	 0.002928824
C	 -5.124733688	 0.090489089	 -1.241738930
H	 -5.934830482	 -0.640470957	 -1.261693502
H	 -5.191539339	 0.694126977	 -2.148365159
H	 -4.176371332	 -0.448002198	 -1.263260863
C	 -6.546884465	 1.716172229	 0.003428859
H	 -6.634578306	 2.352450499	 0.885360358
H	 -6.636854430	 2.349582227	 -0.880348605
H	 -7.385210295	 1.017747971	 0.005659503
C	 -4.064814285	 1.972729194	 0.000174011
H	 -4.108859052	 2.614079322	 0.882239515
H	 -4.110681278	 2.611362550	 -0.883756461
H	 -3.101489709	 1.461241793	 -0.000000370
C	 -5.121808663	 0.094187605	 1.249989647
H	 -4.173295513	 -0.444090002	 1.270944138
H	 -5.186687213	 0.700469953	 2.154998661
H	 -5.931680785	 -0.636892066	 1.273868581
