29
0  1  0  1  0  1  12  17 -1.85558 -1.76388 -2.07748 -2.16918 -2.12040 -2.14897  0.37589  0.37708  0.37622 -1.96298 -0.65569  1.29707 -0.18257 -2.42179
C	 -2.738660455	 -1.391446250	 -0.000010717
H	 -2.803081365	 -2.471208309	 -0.000036593
C	 -2.696775871	 -0.695692628	 1.207210117
H	 -2.727811997	 -1.235452873	 2.143947099
C	 -2.615181468	 0.695657174	 1.207118469
H	 -2.582150515	 1.235353371	 2.143692232
C	 -2.575372889	 1.391351008	 0.000010720
H	 -2.510423350	 2.470808201	 -0.000000000
C	 -2.616683389	 0.695753774	 -1.207124373
H	 -2.583717202	 1.235433865	 -2.143702319
C	 -2.698385547	 -0.695592897	 -1.207200149
H	 -2.730387700	 -1.235293896	 -2.143948872
C	 2.070959091	 -2.076707700	 -0.002928824
C	 1.264000578	 -2.437554291	 1.241738930
H	 1.036019006	 -3.504598717	 1.261693502
H	 1.820169149	 -2.193590738	 2.148365159
H	 0.323472265	 -1.885494041	 1.263260863
C	 3.382958864	 -2.856331422	 -0.003428859
H	 3.977838930	 -2.614137381	 -0.885360358
H	 3.976492996	 -2.617542698	 0.880348605
H	 3.197268629	 -3.931555016	 -0.005659503
C	 2.364108624	 -0.578517110	 -0.000174011
H	 2.941556510	 -0.295985932	 -0.882239515
H	 2.940114830	 -0.298922413	 0.883756461
H	 1.439485252	 0.000002745	 0.000000370
C	 1.265741074	 -2.433171887	 -1.249989647
H	 0.325322417	 -1.880874206	 -1.270944138
H	 1.823236264	 -2.186217185	 -2.154998661
H	 1.037543567	 -3.500081554	 -1.273868581
