29
0  1  0  1  0  1  12  17 -2.88484 -2.57833 -3.04930 -3.35581 -3.15544 -3.27440  4.08680  4.08224  4.07484 -3.17649 -2.60496  7.81962 -0.84316 -7.54799
N	 -3.345916470	 -0.462942490	 0.821351184
H	 -3.288083998	 -0.974185087	 1.691747880
C	 -3.670107648	 0.897730466	 0.926958267
O	 -3.870730490	 1.402901007	 2.017935351
C	 -3.725188069	 1.576500857	 -0.356113349
H	 -3.971990244	 2.623860770	 -0.377328803
C	 -3.466087669	 0.890314961	 -1.487930371
H	 -3.492260157	 1.350465627	 -2.464583584
N	 -3.148346864	 -0.441384840	 -1.471170884
H	 -2.936298107	 -0.937115517	 -2.321168564
C	 -3.058786572	 -1.193591740	 -0.312479369
O	 -2.756082972	 -2.370809733	 -0.307472643
C	 0.319639682	 0.388020591	 -2.524130559
H	 -0.764035369	 0.300833811	 -2.614812900
H	 0.556267476	 1.451603611	 -2.496535760
H	 0.769077329	 -0.030196922	 -3.424039715
C	 0.814139331	 -0.310868365	 -1.264234442
H	 1.899215576	 -0.208763358	 -1.191151342
H	 0.613161901	 -1.383035608	 -1.323807719
C	 0.173645500	 0.247046605	 0.000000000
H	 0.395615875	 1.315813173	 0.077679025
H	 -0.915700491	 0.172624801	 -0.081189330
C	 0.635484005	 -0.457665270	 1.268581410
H	 1.719900121	 -0.357136890	 1.356122191
H	 0.436032403	 -1.527775360	 1.175274920
C	 -0.035400922	 0.094782541	 2.519750673
H	 -1.119462790	 -0.008565852	 2.464610518
H	 0.304154924	 -0.419633093	 3.417707783
H	 0.186523149	 1.155192350	 2.640534593
