29
0  1  0  1  0  1  12  17 -2.48603 -2.36205 -2.56777 -2.69175 -2.62090 -2.66215  0.96235  0.95900  0.95832 -2.61479 -0.57534  1.85343 -0.24171 -3.65117
N	 -3.746251398	 -0.462967797	 0.821392370
H	 -3.688418926	 -0.974210394	 1.691789066
C	 -4.070442576	 0.897705159	 0.926999453
O	 -4.271065418	 1.402875700	 2.017976537
C	 -4.125522997	 1.576475550	 -0.356072163
H	 -4.372325172	 2.623835463	 -0.377287617
C	 -3.866422597	 0.890289654	 -1.487889185
H	 -3.892595085	 1.350440320	 -2.464542398
N	 -3.548681792	 -0.441410147	 -1.471129698
H	 -3.336633035	 -0.937140824	 -2.321127378
C	 -3.459121500	 -1.193617047	 -0.312438183
O	 -3.156417900	 -2.370835040	 -0.307431457
C	 0.802033204	 0.241567953	 -2.524130559
H	 0.184689713	 1.136464687	 -2.614812900
H	 1.841437016	 0.568433782	 -2.496535760
H	 0.664565037	 -0.356765223	 -3.424039715
C	 0.444027439	 -0.536125783	 -1.264234442
H	 1.074991091	 -1.424776873	 -1.191151342
H	 -0.584985346	 -0.898157844	 -1.323807719
C	 0.606949060	 0.297515631	 0.000000000
H	 1.643513247	 0.639666931	 0.077679025
H	 -0.002175108	 1.203706030	 -0.081189330
C	 0.227569927	 -0.454804185	 1.268581410
H	 0.856838116	 -1.343671899	 1.356122191
H	 -0.798898397	 -0.817129075	 1.175274920
C	 0.370561302	 0.402423111	 2.519750673
H	 -0.260971966	 1.289574031	 2.464610518
H	 0.094842218	 -0.148848695	 3.417707783
H	 1.399865170	 0.740436132	 2.640534593
