29
0  1  0  1  0  1  12  17 62.54395 64.79483 61.88823 59.63734 61.67621 60.45598 89.45425 89.44417 89.34578 57.51640 -54.47914 159.45906 -17.02518 -30.43834
N	 -2.101613409	 -0.462881918	 0.821250101
H	 -2.043780937	 -0.974124515	 1.691646797
C	 -2.425804587	 0.897791038	 0.926857184
O	 -2.626427429	 1.402961579	 2.017834268
C	 -2.480885008	 1.576561429	 -0.356214432
H	 -2.727687183	 2.623921342	 -0.377429886
C	 -2.221784608	 0.890375533	 -1.488031454
H	 -2.247957096	 1.350526199	 -2.464684667
N	 -1.904043803	 -0.441324268	 -1.471271967
H	 -1.691995046	 -0.937054945	 -2.321269647
C	 -1.814483511	 -1.193531168	 -0.312580452
O	 -1.511779911	 -2.370749161	 -0.307573726
C	 2.624550744	 0.363493115	 -2.112734868
H	 1.819382643	 0.829824675	 -2.682309836
H	 3.248769148	 1.166269133	 -1.720478475
H	 3.230490062	 -0.223412699	 -2.802021226
C	 2.062849627	 -0.489012299	 -0.982230434
H	 2.884328026	 -0.943124892	 -0.423560564
H	 1.477641158	 -1.317047654	 -1.388889996
C	 1.191946301	 0.314403153	 -0.025234513
H	 1.782374070	 1.128996965	 0.405345130
H	 0.383305887	 0.794624976	 -0.585852637
C	 0.598885283	 -0.526814485	 1.097193185
H	 1.411957044	 -0.981962412	 1.667703773
H	 0.032578564	 -1.353831207	 0.662494795
C	 -0.290646125	 0.287061817	 2.028347809
H	 -1.120873615	 0.739590417	 1.485345378
H	 -0.707706299	 -0.328213113	 2.824429564
H	 0.274575885	 1.094441614	 2.494148146
