29
0  1  0  1  0  1  12  17 -2.72398 -2.57370 -2.70181 -2.85209 -2.76021 -2.81388  0.51820  0.51583  0.51454 -2.81674 -1.11595  2.36127 -0.49623 -3.56583
N	 0.173684296	 -0.373733430	 -0.821392370
H	 0.115851825	 -0.884976027	 -1.691789066
C	 0.497875474	 0.986939526	 -0.926999453
O	 0.698498316	 1.492110067	 -2.017976537
C	 0.552955896	 1.665709917	 0.356072163
H	 0.799758071	 2.713069830	 0.377287617
C	 0.293855496	 0.979524021	 1.487889185
H	 0.320027983	 1.439674687	 2.464542398
N	 -0.023885309	 -0.352175780	 1.471129698
H	 -0.235934067	 -0.847906457	 2.321127378
C	 -0.113445601	 -1.104382680	 0.312438183
O	 -0.416149201	 -2.281600673	 0.307431457
C	 -4.307559370	 -1.543119385	 2.524130559
H	 -3.690215878	 -0.648222651	 2.614812900
H	 -5.346963181	 -1.216253556	 2.496535760
H	 -4.170091202	 -2.141452561	 3.424039715
C	 -3.949553604	 -2.320813121	 1.264234442
H	 -4.580517256	 -3.209464211	 1.191151342
H	 -2.920540820	 -2.682845183	 1.323807719
C	 -4.112475225	 -1.487171707	 0.000000000
H	 -5.149039413	 -1.145020407	 -0.077679025
H	 -3.503351057	 -0.580981308	 0.081189330
C	 -3.733096093	 -2.239491523	 -1.268581410
H	 -4.362364281	 -3.128359237	 -1.356122191
H	 -2.706627768	 -2.601816413	 -1.175274920
C	 -3.876087468	 -1.382264228	 -2.519750673
H	 -3.244554200	 -0.495113307	 -2.464610518
H	 -3.600368384	 -1.933536033	 -3.417707783
H	 -4.905391335	 -1.044251206	 -2.640534593
