29
0  1  0  1  0  1  12  17 -1.29338 -0.76714 -1.23707 -1.76331 -1.36448 -1.60430  6.80861  6.79292  6.77099 -1.19507 -6.59495 16.77953 -2.37209 -9.00756
N	 -0.406201053	 -0.462930943	 -0.999799952
H	 -0.464033524	 -0.974173540	 -1.870196648
C	 -0.082009875	 0.897742013	 -1.105407035
O	 0.118612967	 1.402912554	 -2.196384119
C	 -0.026929453	 1.576512404	 0.177664581
H	 0.219872722	 2.623872317	 0.198880035
C	 -0.286029853	 0.890326508	 1.309481603
H	 -0.259857366	 1.350477174	 2.286134816
N	 -0.603770658	 -0.441373293	 1.292722116
H	 -0.815819416	 -0.937103970	 2.142719796
C	 -0.693330950	 -1.193580193	 0.134030601
O	 -0.996034550	 -2.370798186	 0.129023875
C	 -5.188319922	 0.363493115	 0.328047530
H	 -4.383151820	 0.829824675	 0.897622498
H	 -5.812538325	 1.166269133	 -0.064208863
H	 -5.794259239	 -0.223412699	 1.017333888
C	 -4.626618804	 -0.489012299	 -0.802456904
H	 -5.448097203	 -0.943124892	 -1.361126774
H	 -4.041410336	 -1.317047654	 -0.395797342
C	 -3.755715478	 0.314403153	 -1.759452825
H	 -4.346143248	 1.128996965	 -2.190032468
H	 -2.947075064	 0.794624976	 -1.198834701
C	 -3.162654461	 -0.526814485	 -2.881880524
H	 -3.975726222	 -0.981962412	 -3.452391111
H	 -2.596347741	 -1.353831207	 -2.447182133
C	 -2.273123053	 0.287061817	 -3.813035148
H	 -1.442895563	 0.739590417	 -3.270032716
H	 -1.856062879	 -0.328213113	 -4.609116902
H	 -2.838345062	 1.094441614	 -4.278835484
