29
0  1  0  1  0  1  12  17 -2.72575 -2.40555 -2.93870 -3.25890 -3.04214 -3.17006  3.82473  3.81897  3.81280 -2.83547 -2.91445  8.09110 -1.06375 -6.94836
N	 -0.209446299	 -0.373708123	 -0.821351184
H	 -0.267278770	 -0.884950720	 -1.691747880
C	 0.114744879	 0.986964833	 -0.926958267
O	 0.315367721	 1.492135374	 -2.017935351
C	 0.169825301	 1.665735224	 0.356113349
H	 0.416627476	 2.713095137	 0.377328803
C	 -0.089275099	 0.979549328	 1.487930371
H	 -0.063102612	 1.439699994	 2.464583584
N	 -0.407015904	 -0.352150473	 1.471170884
H	 -0.619064662	 -0.847881150	 2.321168564
C	 -0.496576196	 -1.104357373	 0.312479369
O	 -0.799279796	 -2.281575366	 0.307472643
C	 -3.608776193	 2.172707929	 2.524130559
H	 -2.525101141	 2.085521149	 2.614812900
H	 -3.845403986	 3.236290949	 2.496535760
H	 -4.058213839	 1.754490416	 3.424039715
C	 -4.103275841	 1.473818973	 1.264234442
H	 -5.188352086	 1.575923980	 1.191151342
H	 -3.902298412	 0.401651730	 1.323807719
C	 -3.462782010	 2.031733943	 0.000000000
H	 -3.684752386	 3.100500512	 -0.077679025
H	 -2.373436019	 1.957312139	 0.081189330
C	 -3.924620516	 1.327022069	 -1.268581410
H	 -5.009036631	 1.427550449	 -1.356122191
H	 -3.725168913	 0.256911978	 -1.175274920
C	 -3.253735589	 1.879469879	 -2.519750673
H	 -2.169673721	 1.776121487	 -2.464610518
H	 -3.593291435	 1.365054246	 -3.417707783
H	 -3.475659659	 2.939879688	 -2.640534593
