29
0  1  0  1  0  1  12  17 51.71141 54.79913 50.16931 47.08159 49.81553 48.19192 89.87067 89.85299 89.75094 49.53223 -64.41070 169.66852 -13.29940 -42.42620
N	 -0.119216504	 -0.952799824	 1.601737198
H	 -0.134462712	 -1.961326597	 1.672060016
C	 -1.356653804	 -0.332798321	 1.373634733
O	 -2.371548481	 -0.999008811	 1.264868117
C	 -1.268093921	 1.114968388	 1.295119942
H	 -2.166883868	 1.679513511	 1.116823471
C	 -0.073314923	 1.721675370	 1.448102479
H	 0.043397812	 2.794228708	 1.400325839
N	 1.075140373	 1.012606921	 1.678182521
H	 1.957248053	 1.478710571	 1.811760459
C	 1.116709189	 -0.367387310	 1.779623389
O	 2.138884973	 -0.985612678	 2.004235943
C	 1.143978111	 2.357364480	 4.087601081
H	 0.713129497	 2.668413175	 3.134818514
H	 0.509744200	 2.762797601	 4.875848732
H	 2.126858137	 2.817811892	 4.180722567
C	 1.216994575	 0.838493530	 4.177119422
H	 1.647378219	 0.548930674	 5.138410377
H	 1.891584167	 0.447332979	 3.412001257
C	 -0.147790615	 0.180326878	 4.022302663
H	 -0.819034875	 0.549202688	 4.803921904
H	 -0.595261484	 0.490591895	 3.072402437
C	 -0.091501677	 -1.340359673	 4.081938159
H	 0.332103819	 -1.642790088	 5.042574346
H	 0.600020066	 -1.702238612	 3.317435731
C	 -1.460784599	 -1.982232883	 3.898164508
H	 -1.899163594	 -1.708775200	 2.937978999
H	 -1.403845806	 -3.069001270	 3.942221696
H	 -2.148747377	 -1.653886900	 4.677397555
