29
0  1  0  1  0  1  12  17 -1.90585 -1.38966 -1.84704 -2.36323 -1.97055 -2.20579  6.17497  6.16522  6.14573 -1.76352 -6.40522 15.75315 -2.14289 -8.96857
N	 -0.426153904	 -0.641399509	 -0.821330592
H	 -0.483986375	 -1.152642106	 -1.691727288
C	 -0.101962726	 0.719273447	 -0.926937675
O	 0.098660116	 1.224443988	 -2.017914759
C	 -0.046882304	 1.398043838	 0.356133941
H	 0.199919871	 2.445403751	 0.377349395
C	 -0.305982704	 0.711857942	 1.487950963
H	 -0.279810217	 1.172008608	 2.464604176
N	 -0.623723509	 -0.619841859	 1.471191476
H	 -0.835772267	 -1.115572536	 2.321189156
C	 -0.713283801	 -1.372048759	 0.312499961
O	 -1.015987401	 -2.549266752	 0.307493235
C	 -4.307559370	 -1.543119385	 2.524130559
H	 -3.690215878	 -0.648222651	 2.614812900
H	 -5.346963181	 -1.216253556	 2.496535760
H	 -4.170091202	 -2.141452561	 3.424039715
C	 -3.949553604	 -2.320813121	 1.264234442
H	 -4.580517256	 -3.209464211	 1.191151342
H	 -2.920540820	 -2.682845183	 1.323807719
C	 -4.112475225	 -1.487171707	 0.000000000
H	 -5.149039413	 -1.145020407	 -0.077679025
H	 -3.503351057	 -0.580981308	 0.081189330
C	 -3.733096093	 -2.239491523	 -1.268581410
H	 -4.362364281	 -3.128359237	 -1.356122191
H	 -2.706627768	 -2.601816413	 -1.175274920
C	 -3.876087468	 -1.382264228	 -2.519750673
H	 -3.244554200	 -0.495113307	 -2.464610518
H	 -3.600368384	 -1.933536033	 -3.417707783
H	 -4.905391335	 -1.044251206	 -2.640534593
