29
0  1  0  1  0  1  12  17 -1.66735 -1.19752 -1.95195 -2.42177 -2.07944 -2.28164  7.13994  7.13360  7.12343 -1.72465 -5.27744 14.73962 -1.82105 -9.36578
N	 -0.392630827	 -0.284460790	 -0.821330592
H	 -0.450463298	 -0.795703387	 -1.691727288
C	 -0.068439649	 1.076212166	 -0.926937675
O	 0.132183193	 1.581382707	 -2.017914759
C	 -0.013359227	 1.754982557	 0.356133941
H	 0.233442948	 2.802342470	 0.377349395
C	 -0.272459627	 1.068796661	 1.487950963
H	 -0.246287140	 1.528947327	 2.464604176
N	 -0.590200432	 -0.262903140	 1.471191476
H	 -0.802249190	 -0.758633817	 2.321189156
C	 -0.679760724	 -1.015110040	 0.312499961
O	 -0.982464324	 -2.192328033	 0.307493235
C	 -3.608776193	 2.172707929	 2.524130559
H	 -2.525101141	 2.085521149	 2.614812900
H	 -3.845403986	 3.236290949	 2.496535760
H	 -4.058213839	 1.754490416	 3.424039715
C	 -4.103275841	 1.473818973	 1.264234442
H	 -5.188352086	 1.575923980	 1.191151342
H	 -3.902298412	 0.401651730	 1.323807719
C	 -3.462782010	 2.031733943	 0.000000000
H	 -3.684752386	 3.100500512	 -0.077679025
H	 -2.373436019	 1.957312139	 0.081189330
C	 -3.924620516	 1.327022069	 -1.268581410
H	 -5.009036631	 1.427550449	 -1.356122191
H	 -3.725168913	 0.256911978	 -1.175274920
C	 -3.253735589	 1.879469879	 -2.519750673
H	 -2.169673721	 1.776121487	 -2.464610518
H	 -3.593291435	 1.365054246	 -3.417707783
H	 -3.475659659	 2.939879688	 -2.640534593
