29
0  1  0  1  0  1  12  17 -3.07945 -2.32886 -3.46087 -4.21147 -3.65014 -3.98068 10.21673 10.20436 10.19008 -3.24728 -8.12788 21.43428 -2.07968 -14.47400
N	 -0.179008687	 -0.960655023	 0.890419760
H	 -0.194254895	 -1.969181796	 0.960742578
C	 -1.416445987	 -0.340653520	 0.662317295
O	 -2.431340664	 -1.006864010	 0.553550679
C	 -1.327886104	 1.107113189	 0.583802504
H	 -2.226676051	 1.671658312	 0.405506033
C	 -0.133107106	 1.713820171	 0.736785041
H	 -0.016394371	 2.786373509	 0.689008401
N	 1.015348190	 1.004751722	 0.966865083
H	 1.897455870	 1.470855372	 1.100443021
C	 1.056917006	 -0.375242509	 1.068305951
O	 2.079092790	 -0.993467877	 1.292918505
C	 1.143978111	 2.357364480	 4.087601081
H	 0.713129497	 2.668413175	 3.134818514
H	 0.509744200	 2.762797601	 4.875848732
H	 2.126858137	 2.817811892	 4.180722567
C	 1.216994575	 0.838493530	 4.177119422
H	 1.647378219	 0.548930674	 5.138410377
H	 1.891584167	 0.447332979	 3.412001257
C	 -0.147790615	 0.180326878	 4.022302663
H	 -0.819034875	 0.549202688	 4.803921904
H	 -0.595261484	 0.490591895	 3.072402437
C	 -0.091501677	 -1.340359673	 4.081938159
H	 0.332103819	 -1.642790088	 5.042574346
H	 0.600020066	 -1.702238612	 3.317435731
C	 -1.460784599	 -1.982232883	 3.898164508
H	 -1.899163594	 -1.708775200	 2.937978999
H	 -1.403845806	 -3.069001270	 3.942221696
H	 -2.148747377	 -1.653886900	 4.677397555
