29
0  1  0  1  0  1  12  17  6.45762  7.44042  6.00181  5.01901  5.80215  5.33779 22.45762 22.44573 22.41821  5.81570 -14.74188 41.94390 -3.66792 -17.71841
N	 -2.754327162	 -0.462903591	 0.821289407
H	 -2.696494690	 -0.974146188	 1.691686103
C	 -3.078518340	 0.897769365	 0.926896490
O	 -3.279141182	 1.402939906	 2.017873574
C	 -3.133598761	 1.576539756	 -0.356175126
H	 -3.380400936	 2.623899669	 -0.377390580
C	 -2.874498361	 0.890353860	 -1.487992148
H	 -2.900670849	 1.350504526	 -2.464645361
N	 -2.556757556	 -0.441345941	 -1.471232661
H	 -2.344708799	 -0.937076618	 -2.321230341
C	 -2.467197264	 -1.193552841	 -0.312541146
O	 -2.164493664	 -2.370770834	 -0.307534420
C	 0.319639682	 0.388020591	 -2.524130559
H	 -0.764035369	 0.300833811	 -2.614812900
H	 0.556267476	 1.451603611	 -2.496535760
H	 0.769077329	 -0.030196922	 -3.424039715
C	 0.814139331	 -0.310868365	 -1.264234442
H	 1.899215576	 -0.208763358	 -1.191151342
H	 0.613161901	 -1.383035608	 -1.323807719
C	 0.173645500	 0.247046605	 0.000000000
H	 0.395615875	 1.315813173	 0.077679025
H	 -0.915700491	 0.172624801	 -0.081189330
C	 0.635484005	 -0.457665270	 1.268581410
H	 1.719900121	 -0.357136890	 1.356122191
H	 0.436032403	 -1.527775360	 1.175274920
C	 -0.035400922	 0.094782541	 2.519750673
H	 -1.119462790	 -0.008565852	 2.464610518
H	 0.304154924	 -0.419633093	 3.417707783
H	 0.186523149	 1.155192350	 2.640534593
