29
0  1  0  1  0  1  12  17 73.14887 75.85667 71.99088 69.28307 71.72083 70.26956 106.63120 106.61890 106.51948 68.55197 -60.23734 185.12555 -18.86893 -37.46731
N	 -1.182499415	 -0.462881918	 -0.285840144
H	 -1.240331886	 -0.974124515	 -1.156236840
C	 -0.858308237	 0.897791038	 -0.391447227
O	 -0.657685395	 1.402961579	 -1.482424311
C	 -0.803227815	 1.576561429	 0.891624389
H	 -0.556425640	 2.623921342	 0.912839843
C	 -1.062328215	 0.890375533	 2.023441411
H	 -1.036155728	 1.350526199	 3.000094624
N	 -1.380069020	 -0.441324268	 2.006681924
H	 -1.592117778	 -0.937054945	 2.856679604
C	 -1.469629312	 -1.193531168	 0.847990409
O	 -1.772332912	 -2.370749161	 0.842983683
C	 -2.718922058	 0.363493115	 4.043874844
H	 -1.823071615	 0.829824675	 3.631366298
H	 -3.370735260	 1.166269133	 4.388335642
H	 -2.424952219	 -0.223412699	 4.913276865
C	 -3.417117057	 -0.489012299	 2.992175190
H	 -4.311678556	 -0.943124892	 3.424261417
H	 -2.772335312	 -1.317047654	 2.688699571
C	 -3.810448173	 0.314403153	 1.759452825
H	 -4.478554968	 1.128996965	 2.055488451
H	 -2.920618429	 0.794624976	 1.339458746
C	 -4.485968566	 -0.526814485	 0.684633068
H	 -5.386581108	 -0.981962412	 1.103518575
H	 -3.826355356	 -1.353831207	 0.411546258
C	 -4.847606421	 0.287061817	 -0.551301041
H	 -3.962238776	 0.739590417	 -0.998797922
H	 -5.328503357	 -0.328213113	 -1.310526623
H	 -5.533612350	 1.094441614	 -0.294704590
