29
0  1  0  1  0  1  12  17 65.84600 68.22255 65.00498 62.62842 64.78280 63.48668 93.02200 93.00771 92.88771 58.52987 -60.99040 175.05581 -23.19364 -32.34189
N	 -2.134905646	 -0.462881918	 0.821246346
H	 -2.077073174	 -0.974124515	 1.691643042
C	 -2.459096824	 0.897791038	 0.926853429
O	 -2.659719666	 1.402961579	 2.017830513
C	 -2.514177245	 1.576561429	 -0.356218187
H	 -2.760979420	 2.623921342	 -0.377433641
C	 -2.255076845	 0.890375533	 -1.488035209
H	 -2.281249333	 1.350526199	 -2.464688422
N	 -1.937336040	 -0.441324268	 -1.471275722
H	 -1.725287283	 -0.937054945	 -2.321273402
C	 -1.847775748	 -1.193531168	 -0.312584207
O	 -1.545072148	 -2.370749161	 -0.307577481
C	 -0.010553899	 0.363493115	 -2.259187506
H	 -0.906404341	 0.829824675	 -1.846678960
H	 0.641259304	 1.166269133	 -2.603648304
H	 -0.304523737	 -0.223412699	 -3.128589527
C	 0.687641101	 -0.489012299	 -1.207487852
H	 1.582202600	 -0.943124892	 -1.639574079
H	 0.042859355	 -1.317047654	 -0.904012232
C	 1.080972217	 0.314403153	 0.025234513
H	 1.749079011	 1.128996965	 -0.270801112
H	 0.191142473	 0.794624976	 0.445228592
C	 1.756492609	 -0.526814485	 1.100054270
H	 2.657105151	 -0.981962412	 0.681168764
H	 1.096879400	 -1.353831207	 1.373141080
C	 2.118130464	 0.287061817	 2.335988379
H	 1.232762819	 0.739590417	 2.783485261
H	 2.599027400	 -0.328213113	 3.095213962
H	 2.804136394	 1.094441614	 2.079391928
