29
0  1  0  1  0  1  12  17 -1.86601 -1.40825 -2.07980 -2.53756 -2.21478 -2.40680  7.32133  7.31319  7.30035 -2.21226 -4.73747 13.90947 -1.37023 -10.01404
N	 -3.148720034	 -0.462929523	 0.821330592
H	 -3.090887562	 -0.974172120	 1.691727288
C	 -3.472911212	 0.897743433	 0.926937675
O	 -3.673534054	 1.402913974	 2.017914759
C	 -3.527991633	 1.576513824	 -0.356133941
H	 -3.774793808	 2.623873737	 -0.377349395
C	 -3.268891233	 0.890327928	 -1.487950963
H	 -3.295063721	 1.350478594	 -2.464604176
N	 -2.951150428	 -0.441371873	 -1.471191476
H	 -2.739101671	 -0.937102550	 -2.321189156
C	 -2.861590136	 -1.193578773	 -0.312499961
O	 -2.558886536	 -2.370796766	 -0.307493235
C	 0.319639682	 0.388020591	 -2.524130559
H	 -0.764035369	 0.300833811	 -2.614812900
H	 0.556267476	 1.451603611	 -2.496535760
H	 0.769077329	 -0.030196922	 -3.424039715
C	 0.814139331	 -0.310868365	 -1.264234442
H	 1.899215576	 -0.208763358	 -1.191151342
H	 0.613161901	 -1.383035608	 -1.323807719
C	 0.173645500	 0.247046605	 0.000000000
H	 0.395615875	 1.315813173	 0.077679025
H	 -0.915700491	 0.172624801	 -0.081189330
C	 0.635484005	 -0.457665270	 1.268581410
H	 1.719900121	 -0.357136890	 1.356122191
H	 0.436032403	 -1.527775360	 1.175274920
C	 -0.035400922	 0.094782541	 2.519750673
H	 -1.119462790	 -0.008565852	 2.464610518
H	 0.304154924	 -0.419633093	 3.417707783
H	 0.186523149	 1.155192350	 2.640534593
