29
0  1  0  1  0  1  12  17 36.44872 38.50417 35.40778 33.35233 35.12771 34.07820 64.25510 64.24447 64.18968 33.83166 -42.25128 116.85409 -9.38690 -31.38425
N	 -2.359934289	 -0.462877658	 0.821248222
H	 -2.302101817	 -0.974120255	 1.691644918
C	 -2.684125467	 0.897795298	 0.926855305
O	 -2.884748309	 1.402965839	 2.017832389
C	 -2.739205888	 1.576565689	 -0.356216311
H	 -2.986008063	 2.623925602	 -0.377431765
C	 -2.480105488	 0.890379793	 -1.488033333
H	 -2.506277976	 1.350530459	 -2.464686546
N	 -2.162364683	 -0.441320008	 -1.471273846
H	 -1.950315926	 -0.937050685	 -2.321271526
C	 -2.072804391	 -1.193526908	 -0.312582331
O	 -1.770100791	 -2.370744901	 -0.307575605
C	 0.319639682	 0.388020591	 -2.524130559
H	 -0.764035369	 0.300833811	 -2.614812900
H	 0.556267476	 1.451603611	 -2.496535760
H	 0.769077329	 -0.030196922	 -3.424039715
C	 0.814139331	 -0.310868365	 -1.264234442
H	 1.899215576	 -0.208763358	 -1.191151342
H	 0.613161901	 -1.383035608	 -1.323807719
C	 0.173645500	 0.247046605	 0.000000000
H	 0.395615875	 1.315813173	 0.077679025
H	 -0.915700491	 0.172624801	 -0.081189330
C	 0.635484005	 -0.457665270	 1.268581410
H	 1.719900121	 -0.357136890	 1.356122191
H	 0.436032403	 -1.527775360	 1.175274920
C	 -0.035400922	 0.094782541	 2.519750673
H	 -1.119462790	 -0.008565852	 2.464610518
H	 0.304154924	 -0.419633093	 3.417707783
H	 0.186523149	 1.155192350	 2.640534593
