29
0  1  0  1  0  1  12  17 -4.48718 -4.22512 -4.67313 -4.93519 -4.77063 -4.86612  1.64977  1.64279  1.64196 -4.66588 -1.63761  4.09122 -0.54524 -6.57425
N	 -0.223852824	 -0.966546423	 0.356931681
H	 -0.239099032	 -1.975073196	 0.427254499
C	 -1.461290124	 -0.346544920	 0.128829216
O	 -2.476184801	 -1.012755410	 0.020062600
C	 -1.372730241	 1.101221789	 0.050314425
H	 -2.271520188	 1.665766912	 -0.127982046
C	 -0.177951243	 1.707928771	 0.203296962
H	 -0.061238508	 2.780482109	 0.155520322
N	 0.970504053	 0.998860322	 0.433377004
H	 1.852611733	 1.464963972	 0.566954942
C	 1.012072869	 -0.381133909	 0.534817872
O	 2.034248653	 -0.999359277	 0.759430426
C	 1.143978111	 2.357364480	 4.087601081
H	 0.713129497	 2.668413175	 3.134818514
H	 0.509744200	 2.762797601	 4.875848732
H	 2.126858137	 2.817811892	 4.180722567
C	 1.216994575	 0.838493530	 4.177119422
H	 1.647378219	 0.548930674	 5.138410377
H	 1.891584167	 0.447332979	 3.412001257
C	 -0.147790615	 0.180326878	 4.022302663
H	 -0.819034875	 0.549202688	 4.803921904
H	 -0.595261484	 0.490591895	 3.072402437
C	 -0.091501677	 -1.340359673	 4.081938159
H	 0.332103819	 -1.642790088	 5.042574346
H	 0.600020066	 -1.702238612	 3.317435731
C	 -1.460784599	 -1.982232883	 3.898164508
H	 -1.899163594	 -1.708775200	 2.937978999
H	 -1.403845806	 -3.069001270	 3.942221696
H	 -2.148747377	 -1.653886900	 4.677397555
