29
0  1  0  1  0  1  12  17 11.41660 12.35528 11.19637 10.25769 11.05519 10.58182 24.66822 24.65940 24.63020 10.60621 -16.94163 47.64046 -5.16571 -14.92691
N	 -2.604308066	 -0.462906431	 0.821288156
H	 -2.546475594	 -0.974149028	 1.691684852
C	 -2.928499244	 0.897766525	 0.926895239
O	 -3.129122086	 1.402937066	 2.017872323
C	 -2.983579665	 1.576536916	 -0.356176377
H	 -3.230381840	 2.623896829	 -0.377391831
C	 -2.724479265	 0.890351020	 -1.487993399
H	 -2.750651753	 1.350501686	 -2.464646612
N	 -2.406738460	 -0.441348781	 -1.471233912
H	 -2.194689703	 -0.937079458	 -2.321231592
C	 -2.317178168	 -1.193555681	 -0.312542397
O	 -2.014474568	 -2.370773674	 -0.307535671
C	 -0.010553899	 0.363493115	 -2.259187506
H	 -0.906404341	 0.829824675	 -1.846678960
H	 0.641259304	 1.166269133	 -2.603648304
H	 -0.304523737	 -0.223412699	 -3.128589527
C	 0.687641101	 -0.489012299	 -1.207487852
H	 1.582202600	 -0.943124892	 -1.639574079
H	 0.042859355	 -1.317047654	 -0.904012232
C	 1.080972217	 0.314403153	 0.025234513
H	 1.749079011	 1.128996965	 -0.270801112
H	 0.191142473	 0.794624976	 0.445228592
C	 1.756492609	 -0.526814485	 1.100054270
H	 2.657105151	 -0.981962412	 0.681168764
H	 1.096879400	 -1.353831207	 1.373141080
C	 2.118130464	 0.287061817	 2.335988379
H	 1.232762819	 0.739590417	 2.783485261
H	 2.599027400	 -0.328213113	 3.095213962
H	 2.804136394	 1.094441614	 2.079391928
