29
0  1  0  1  0  1  12  17 -1.76075 -1.67765 -1.81270 -1.89580 -1.84805 -1.87572  0.64421  0.64285  0.64269 -1.85033 -0.33487  1.13212 -0.12746 -2.52012
N	 -3.783362822	 -0.462967712	 0.821392056
H	 -3.725530350	 -0.974210309	 1.691788752
C	 -4.107554000	 0.897705244	 0.926999139
O	 -4.308176842	 1.402875785	 2.017976223
C	 -4.162634421	 1.576475635	 -0.356072477
H	 -4.409436596	 2.623835548	 -0.377287931
C	 -3.903534021	 0.890289739	 -1.487889499
H	 -3.929706509	 1.350440405	 -2.464542712
N	 -3.585793216	 -0.441410062	 -1.471130012
H	 -3.373744459	 -0.937140739	 -2.321127692
C	 -3.496232924	 -1.193616962	 -0.312438497
O	 -3.193529324	 -2.370834955	 -0.307431771
C	 2.624550744	 0.363493115	 -2.112734868
H	 1.819382643	 0.829824675	 -2.682309836
H	 3.248769148	 1.166269133	 -1.720478475
H	 3.230490062	 -0.223412699	 -2.802021226
C	 2.062849627	 -0.489012299	 -0.982230434
H	 2.884328026	 -0.943124892	 -0.423560564
H	 1.477641158	 -1.317047654	 -1.388889996
C	 1.191946301	 0.314403153	 -0.025234513
H	 1.782374070	 1.128996965	 0.405345130
H	 0.383305887	 0.794624976	 -0.585852637
C	 0.598885283	 -0.526814485	 1.097193185
H	 1.411957044	 -0.981962412	 1.667703773
H	 0.032578564	 -1.353831207	 0.662494795
C	 -0.290646125	 0.287061817	 2.028347809
H	 -1.120873615	 0.739590417	 1.485345378
H	 -0.707706299	 -0.328213113	 2.824429564
H	 0.274575885	 1.094441614	 2.494148146
