29
0  1  0  1  0  1  12  17 59.45361 62.01224 58.97317 56.41454 58.71211 57.33350 87.52260 87.49482 87.37554 55.16265 -71.50249 191.07658 -30.17957 -34.23187
N	 -1.166079618	 -0.462881918	 -1.356656302
H	 -1.223912089	 -0.974124515	 -2.227052998
C	 -0.841888440	 0.897791038	 -1.462263385
O	 -0.641265598	 1.402961579	 -2.553240469
C	 -0.786808018	 1.576561429	 -0.179191769
H	 -0.540005843	 2.623921342	 -0.157976315
C	 -1.045908418	 0.890375533	 0.952625253
H	 -1.019735931	 1.350526199	 1.929278466
N	 -1.363649223	 -0.441324268	 0.935865766
H	 -1.575697981	 -0.937054945	 1.785863446
C	 -1.453209515	 -1.193531168	 -0.222825749
O	 -1.755913115	 -2.370749161	 -0.227832475
C	 -5.188319922	 0.363493115	 0.328047530
H	 -4.383151820	 0.829824675	 0.897622498
H	 -5.812538325	 1.166269133	 -0.064208863
H	 -5.794259239	 -0.223412699	 1.017333888
C	 -4.626618804	 -0.489012299	 -0.802456904
H	 -5.448097203	 -0.943124892	 -1.361126774
H	 -4.041410336	 -1.317047654	 -0.395797342
C	 -3.755715478	 0.314403153	 -1.759452825
H	 -4.346143248	 1.128996965	 -2.190032468
H	 -2.947075064	 0.794624976	 -1.198834701
C	 -3.162654461	 -0.526814485	 -2.881880524
H	 -3.975726222	 -0.981962412	 -3.452391111
H	 -2.596347741	 -1.353831207	 -2.447182133
C	 -2.273123053	 0.287061817	 -3.813035148
H	 -1.442895563	 0.739590417	 -3.270032716
H	 -1.856062879	 -0.328213113	 -4.609116902
H	 -2.838345062	 1.094441614	 -4.278835484
