29
0  1  0  1  0  1  12  17 -2.88755 -2.66952 -3.05720 -3.27522 -3.13821 -3.21883  2.00482  2.00047  1.99712 -3.01925 -1.60245  4.40192 -0.63469 -5.18404
N	 -0.026261771	 -0.462955456	 -0.821371777
H	 -0.084094242	 -0.974198053	 -1.691768473
C	 0.297929407	 0.897717500	 -0.926978860
O	 0.498552249	 1.402888041	 -2.017955944
C	 0.353009829	 1.576487891	 0.356092756
H	 0.599812004	 2.623847804	 0.377308210
C	 0.093909429	 0.890301995	 1.487909778
H	 0.120081916	 1.350452661	 2.464562991
N	 -0.223831376	 -0.441397806	 1.471150291
H	 -0.435880134	 -0.937128483	 2.321147971
C	 -0.313391668	 -1.193604706	 0.312458776
O	 -0.616095268	 -2.370822699	 0.307452050
C	 -3.608776193	 2.172707929	 2.524130559
H	 -2.525101141	 2.085521149	 2.614812900
H	 -3.845403986	 3.236290949	 2.496535760
H	 -4.058213839	 1.754490416	 3.424039715
C	 -4.103275841	 1.473818973	 1.264234442
H	 -5.188352086	 1.575923980	 1.191151342
H	 -3.902298412	 0.401651730	 1.323807719
C	 -3.462782010	 2.031733943	 0.000000000
H	 -3.684752386	 3.100500512	 -0.077679025
H	 -2.373436019	 1.957312139	 0.081189330
C	 -3.924620516	 1.327022069	 -1.268581410
H	 -5.009036631	 1.427550449	 -1.356122191
H	 -3.725168913	 0.256911978	 -1.175274920
C	 -3.253735589	 1.879469879	 -2.519750673
H	 -2.169673721	 1.776121487	 -2.464610518
H	 -3.593291435	 1.365054246	 -3.417707783
H	 -3.475659659	 2.939879688	 -2.640534593
