29
0  1  0  1  0  1  12  17 -3.05192 -2.84847 -3.18848 -3.39193 -3.26978 -3.34208  2.25122  2.24980  2.24582 -3.29605 -1.39941  4.33808 -0.52715 -5.70757
N	 -3.543112906	 -0.462955456	 0.821371777
H	 -3.485280434	 -0.974198053	 1.691768473
C	 -3.867304084	 0.897717500	 0.926978860
O	 -4.067926926	 1.402888041	 2.017955944
C	 -3.922384505	 1.576487891	 -0.356092756
H	 -4.169186680	 2.623847804	 -0.377308210
C	 -3.663284105	 0.890301995	 -1.487909778
H	 -3.689456593	 1.350452661	 -2.464562991
N	 -3.345543300	 -0.441397806	 -1.471150291
H	 -3.133494543	 -0.937128483	 -2.321147971
C	 -3.255983008	 -1.193604706	 -0.312458776
O	 -2.953279408	 -2.370822699	 -0.307452050
C	 0.319639682	 0.388020591	 -2.524130559
H	 -0.764035369	 0.300833811	 -2.614812900
H	 0.556267476	 1.451603611	 -2.496535760
H	 0.769077329	 -0.030196922	 -3.424039715
C	 0.814139331	 -0.310868365	 -1.264234442
H	 1.899215576	 -0.208763358	 -1.191151342
H	 0.613161901	 -1.383035608	 -1.323807719
C	 0.173645500	 0.247046605	 0.000000000
H	 0.395615875	 1.315813173	 0.077679025
H	 -0.915700491	 0.172624801	 -0.081189330
C	 0.635484005	 -0.457665270	 1.268581410
H	 1.719900121	 -0.357136890	 1.356122191
H	 0.436032403	 -1.527775360	 1.175274920
C	 -0.035400922	 0.094782541	 2.519750673
H	 -1.119462790	 -0.008565852	 2.464610518
H	 0.304154924	 -0.419633093	 3.417707783
H	 0.186523149	 1.155192350	 2.640534593
