29
0  1  0  1  0  1  12  17 -2.82694 -2.59770 -2.79893 -3.02817 -2.87667 -2.96649  1.57329  1.56771  1.56241 -2.89062 -1.88085  4.49249 -0.70251 -4.79975
N	 -0.026261771	 -0.462955456	 -0.821371777
H	 -0.084094242	 -0.974198053	 -1.691768473
C	 0.297929407	 0.897717500	 -0.926978860
O	 0.498552249	 1.402888041	 -2.017955944
C	 0.353009829	 1.576487891	 0.356092756
H	 0.599812004	 2.623847804	 0.377308210
C	 0.093909429	 0.890301995	 1.487909778
H	 0.120081916	 1.350452661	 2.464562991
N	 -0.223831376	 -0.441397806	 1.471150291
H	 -0.435880134	 -0.937128483	 2.321147971
C	 -0.313391668	 -1.193604706	 0.312458776
O	 -0.616095268	 -2.370822699	 0.307452050
C	 -5.188319922	 0.363493115	 0.328047530
H	 -4.383151820	 0.829824675	 0.897622498
H	 -5.812538325	 1.166269133	 -0.064208863
H	 -5.794259239	 -0.223412699	 1.017333888
C	 -4.626618804	 -0.489012299	 -0.802456904
H	 -5.448097203	 -0.943124892	 -1.361126774
H	 -4.041410336	 -1.317047654	 -0.395797342
C	 -3.755715478	 0.314403153	 -1.759452825
H	 -4.346143248	 1.128996965	 -2.190032468
H	 -2.947075064	 0.794624976	 -1.198834701
C	 -3.162654461	 -0.526814485	 -2.881880524
H	 -3.975726222	 -0.981962412	 -3.452391111
H	 -2.596347741	 -1.353831207	 -2.447182133
C	 -2.273123053	 0.287061817	 -3.813035148
H	 -1.442895563	 0.739590417	 -3.270032716
H	 -1.856062879	 -0.328213113	 -4.609116902
H	 -2.838345062	 1.094441614	 -4.278835484
