29
0  1  0  1  0  1  12  17 -2.17676 -2.07364 -2.18366 -2.28677 -2.22942 -2.26275  0.27706  0.27424  0.27384 -2.25285 -0.54767  1.15919 -0.22668 -2.63769
N	 0.353677511	 -0.462979969	 -0.642943602
H	 0.295845040	 -0.974222566	 -1.513340298
C	 0.677868689	 0.897692987	 -0.748550685
O	 0.878491531	 1.402863528	 -1.839527769
C	 0.732949111	 1.576463378	 0.534520931
H	 0.979751286	 2.623823291	 0.555736385
C	 0.473848711	 0.890277482	 1.666337953
H	 0.500021198	 1.350428148	 2.642991166
N	 0.156107906	 -0.441422319	 1.649578466
H	 -0.055940852	 -0.937152996	 2.499576146
C	 0.066547614	 -1.193629219	 0.490886951
O	 -0.236155986	 -2.370847212	 0.485880225
C	 -5.188319922	 0.363493115	 0.328047530
H	 -4.383151820	 0.829824675	 0.897622498
H	 -5.812538325	 1.166269133	 -0.064208863
H	 -5.794259239	 -0.223412699	 1.017333888
C	 -4.626618804	 -0.489012299	 -0.802456904
H	 -5.448097203	 -0.943124892	 -1.361126774
H	 -4.041410336	 -1.317047654	 -0.395797342
C	 -3.755715478	 0.314403153	 -1.759452825
H	 -4.346143248	 1.128996965	 -2.190032468
H	 -2.947075064	 0.794624976	 -1.198834701
C	 -3.162654461	 -0.526814485	 -2.881880524
H	 -3.975726222	 -0.981962412	 -3.452391111
H	 -2.596347741	 -1.353831207	 -2.447182133
C	 -2.273123053	 0.287061817	 -3.813035148
H	 -1.442895563	 0.739590417	 -3.270032716
H	 -1.856062879	 -0.328213113	 -4.609116902
H	 -2.838345062	 1.094441614	 -4.278835484
