29
0  1  0  1  0  1  12  17 -3.12856 -2.89933 -3.17381 -3.40303 -3.26180 -3.34425  1.78499  1.77860  1.77670 -3.23728 -1.33798  4.10286 -0.77598 -5.22618
N	 -0.026261771	 -0.462955456	 -0.821371777
H	 -0.084094242	 -0.974198053	 -1.691768473
C	 0.297929407	 0.897717500	 -0.926978860
O	 0.498552249	 1.402888041	 -2.017955944
C	 0.353009829	 1.576487891	 0.356092756
H	 0.599812004	 2.623847804	 0.377308210
C	 0.093909429	 0.890301995	 1.487909778
H	 0.120081916	 1.350452661	 2.464562991
N	 -0.223831376	 -0.441397806	 1.471150291
H	 -0.435880134	 -0.937128483	 2.321147971
C	 -0.313391668	 -1.193604706	 0.312458776
O	 -0.616095268	 -2.370822699	 0.307452050
C	 -2.718922058	 0.363493115	 4.043874844
H	 -1.823071615	 0.829824675	 3.631366298
H	 -3.370735260	 1.166269133	 4.388335642
H	 -2.424952219	 -0.223412699	 4.913276865
C	 -3.417117057	 -0.489012299	 2.992175190
H	 -4.311678556	 -0.943124892	 3.424261417
H	 -2.772335312	 -1.317047654	 2.688699571
C	 -3.810448173	 0.314403153	 1.759452825
H	 -4.478554968	 1.128996965	 2.055488451
H	 -2.920618429	 0.794624976	 1.339458746
C	 -4.485968566	 -0.526814485	 0.684633068
H	 -5.386581108	 -0.981962412	 1.103518575
H	 -3.826355356	 -1.353831207	 0.411546258
C	 -4.847606421	 0.287061817	 -0.551301041
H	 -3.962238776	 0.739590417	 -0.998797922
H	 -5.328503357	 -0.328213113	 -1.310526623
H	 -5.533612350	 1.094441614	 -0.294704590
