29
0  1  0  1  0  1  12  17 -2.30000 -2.19975 -2.29387 -2.39412 -2.33808 -2.37049  0.11681  0.11449  0.11446 -2.38869 -0.63884  1.21312 -0.31279 -2.65018
N	 0.373630362	 -0.284511403	 -0.821412962
H	 0.315797891	 -0.795754000	 -1.691809658
C	 0.697821540	 1.076161553	 -0.927020045
O	 0.898444382	 1.581332094	 -2.017997129
C	 0.752901962	 1.754931944	 0.356051571
H	 0.999704137	 2.802291857	 0.377267025
C	 0.493801562	 1.068746048	 1.487868593
H	 0.519974049	 1.528896714	 2.464521806
N	 0.176060757	 -0.262953753	 1.471109106
H	 -0.035988001	 -0.758684430	 2.321106786
C	 0.086500465	 -1.015160653	 0.312417591
O	 -0.216203135	 -2.192378646	 0.307410865
C	 -4.307559370	 -1.543119385	 2.524130559
H	 -3.690215878	 -0.648222651	 2.614812900
H	 -5.346963181	 -1.216253556	 2.496535760
H	 -4.170091202	 -2.141452561	 3.424039715
C	 -3.949553604	 -2.320813121	 1.264234442
H	 -4.580517256	 -3.209464211	 1.191151342
H	 -2.920540820	 -2.682845183	 1.323807719
C	 -4.112475225	 -1.487171707	 0.000000000
H	 -5.149039413	 -1.145020407	 -0.077679025
H	 -3.503351057	 -0.580981308	 0.081189330
C	 -3.733096093	 -2.239491523	 -1.268581410
H	 -4.362364281	 -3.128359237	 -1.356122191
H	 -2.706627768	 -2.601816413	 -1.175274920
C	 -3.876087468	 -1.382264228	 -2.519750673
H	 -3.244554200	 -0.495113307	 -2.464610518
H	 -3.600368384	 -1.933536033	 -3.417707783
H	 -4.905391335	 -1.044251206	 -2.640534593
