29
0  1  0  1  0  1  12  17 -1.33150 -0.81126 -1.41475 -1.93498 -1.55417 -1.77833  7.81020  7.79547  7.78598 -1.43438 -5.02524 15.49038 -2.06479 -9.83472
N	 -0.411674319	 -0.462930943	 -0.642861233
H	 -0.469506790	 -0.974173540	 -1.513257929
C	 -0.087483141	 0.897742013	 -0.748468316
O	 0.113139701	 1.402912554	 -1.839445400
C	 -0.032402719	 1.576512404	 0.534603300
H	 0.214399456	 2.623872317	 0.555818754
C	 -0.291503119	 0.890326508	 1.666420322
H	 -0.265330632	 1.350477174	 2.643073535
N	 -0.609243924	 -0.441373293	 1.649660835
H	 -0.821292682	 -0.937103970	 2.499658515
C	 -0.698804216	 -1.193580193	 0.490969320
O	 -1.001507816	 -2.370798186	 0.485962594
C	 -2.718922058	 0.363493115	 4.043874844
H	 -1.823071615	 0.829824675	 3.631366298
H	 -3.370735260	 1.166269133	 4.388335642
H	 -2.424952219	 -0.223412699	 4.913276865
C	 -3.417117057	 -0.489012299	 2.992175190
H	 -4.311678556	 -0.943124892	 3.424261417
H	 -2.772335312	 -1.317047654	 2.688699571
C	 -3.810448173	 0.314403153	 1.759452825
H	 -4.478554968	 1.128996965	 2.055488451
H	 -2.920618429	 0.794624976	 1.339458746
C	 -4.485968566	 -0.526814485	 0.684633068
H	 -5.386581108	 -0.981962412	 1.103518575
H	 -3.826355356	 -1.353831207	 0.411546258
C	 -4.847606421	 0.287061817	 -0.551301041
H	 -3.962238776	 0.739590417	 -0.998797922
H	 -5.328503357	 -0.328213113	 -1.310526623
H	 -5.533612350	 1.094441614	 -0.294704590
