29
0  1  0  1  0  1  12  17 10.66348 11.82121 10.59001  9.43228 10.40219  9.82724 25.75092 25.72281 25.68910 10.73440 -22.59666 59.07816 -8.39899 -17.34811
N	 -0.786140336	 -0.462906431	 -1.178228127
H	 -0.843972807	 -0.974149028	 -2.048624823
C	 -0.461949158	 0.897766525	 -1.283835210
O	 -0.261326316	 1.402937066	 -2.374812294
C	 -0.406868736	 1.576536916	 -0.000763594
H	 -0.160066561	 2.623896829	 0.020451860
C	 -0.665969136	 0.890351020	 1.131053428
H	 -0.639796649	 1.350501686	 2.107706641
N	 -0.983709941	 -0.441348781	 1.114293941
H	 -1.195758699	 -0.937079458	 1.964291621
C	 -1.073270233	 -1.193555681	 -0.044397574
O	 -1.375973833	 -2.370773674	 -0.049404300
C	 -5.188319922	 0.363493115	 0.328047530
H	 -4.383151820	 0.829824675	 0.897622498
H	 -5.812538325	 1.166269133	 -0.064208863
H	 -5.794259239	 -0.223412699	 1.017333888
C	 -4.626618804	 -0.489012299	 -0.802456904
H	 -5.448097203	 -0.943124892	 -1.361126774
H	 -4.041410336	 -1.317047654	 -0.395797342
C	 -3.755715478	 0.314403153	 -1.759452825
H	 -4.346143248	 1.128996965	 -2.190032468
H	 -2.947075064	 0.794624976	 -1.198834701
C	 -3.162654461	 -0.526814485	 -2.881880524
H	 -3.975726222	 -0.981962412	 -3.452391111
H	 -2.596347741	 -1.353831207	 -2.447182133
C	 -2.273123053	 0.287061817	 -3.813035148
H	 -1.442895563	 0.739590417	 -3.270032716
H	 -1.856062879	 -0.328213113	 -4.609116902
H	 -2.838345062	 1.094441614	 -4.278835484
