29
0  1  0  1  0  1  12  17 12.84883 14.04636 12.53195 11.33443 12.33641 11.73983 30.21370 30.19547 30.15444 12.44756 -18.02834 55.58187 -6.14727 -18.95870
N	 -0.797086867	 -0.462906431	 -0.464350689
H	 -0.854919338	 -0.974149028	 -1.334747385
C	 -0.472895689	 0.897766525	 -0.569957772
O	 -0.272272847	 1.402937066	 -1.660934856
C	 -0.417815267	 1.576536916	 0.713113844
H	 -0.171013092	 2.623896829	 0.734329298
C	 -0.676915667	 0.890351020	 1.844930866
H	 -0.650743180	 1.350501686	 2.821584079
N	 -0.994656472	 -0.441348781	 1.828171379
H	 -1.206705230	 -0.937079458	 2.678169059
C	 -1.084216764	 -1.193555681	 0.669479864
O	 -1.386920364	 -2.370773674	 0.664473138
C	 -2.718922058	 0.363493115	 4.043874844
H	 -1.823071615	 0.829824675	 3.631366298
H	 -3.370735260	 1.166269133	 4.388335642
H	 -2.424952219	 -0.223412699	 4.913276865
C	 -3.417117057	 -0.489012299	 2.992175190
H	 -4.311678556	 -0.943124892	 3.424261417
H	 -2.772335312	 -1.317047654	 2.688699571
C	 -3.810448173	 0.314403153	 1.759452825
H	 -4.478554968	 1.128996965	 2.055488451
H	 -2.920618429	 0.794624976	 1.339458746
C	 -4.485968566	 -0.526814485	 0.684633068
H	 -5.386581108	 -0.981962412	 1.103518575
H	 -3.826355356	 -1.353831207	 0.411546258
C	 -4.847606421	 0.287061817	 -0.551301041
H	 -3.962238776	 0.739590417	 -0.998797922
H	 -5.328503357	 -0.328213113	 -1.310526623
H	 -5.533612350	 1.094441614	 -0.294704590
