29
0  1  0  1  0  1  12  17 -2.91530 -2.57117 -2.85791 -3.20204 -2.95683 -3.10269  3.02507  3.01885  3.00914 -2.92045 -3.57671  8.53094 -1.30402 -6.57066
N	 -0.226207838	 -0.552177482	 -0.821351184
H	 -0.284040309	 -1.063420079	 -1.691747880
C	 0.097983340	 0.808495474	 -0.926958267
O	 0.298606182	 1.313666015	 -2.017935351
C	 0.153063762	 1.487265865	 0.356113349
H	 0.399865937	 2.534625778	 0.377328803
C	 -0.106036638	 0.801079969	 1.487930371
H	 -0.079864151	 1.261230635	 2.464583584
N	 -0.423777443	 -0.530619832	 1.471170884
H	 -0.635826201	 -1.026350509	 2.321168564
C	 -0.513337735	 -1.282826732	 0.312479369
O	 -0.816041335	 -2.460044725	 0.307472643
C	 -4.307559370	 -1.543119385	 2.524130559
H	 -3.690215878	 -0.648222651	 2.614812900
H	 -5.346963181	 -1.216253556	 2.496535760
H	 -4.170091202	 -2.141452561	 3.424039715
C	 -3.949553604	 -2.320813121	 1.264234442
H	 -4.580517256	 -3.209464211	 1.191151342
H	 -2.920540820	 -2.682845183	 1.323807719
C	 -4.112475225	 -1.487171707	 0.000000000
H	 -5.149039413	 -1.145020407	 -0.077679025
H	 -3.503351057	 -0.580981308	 0.081189330
C	 -3.733096093	 -2.239491523	 -1.268581410
H	 -4.362364281	 -3.128359237	 -1.356122191
H	 -2.706627768	 -2.601816413	 -1.175274920
C	 -3.876087468	 -1.382264228	 -2.519750673
H	 -3.244554200	 -0.495113307	 -2.464610518
H	 -3.600368384	 -1.933536033	 -3.417707783
H	 -4.905391335	 -1.044251206	 -2.640534593
