29
0  1  0  1  0  1  12  17 -1.69044 -1.63280 -1.74357 -1.80121 -1.77060 -1.78828  0.05486  0.05403  0.05408 -1.76426 -0.34747  0.60138 -0.13832 -1.87987
N	 -4.012515326	 -0.462979969	 0.821413587
H	 -3.954682854	 -0.974222566	 1.691810283
C	 -4.336706504	 0.897692987	 0.927020670
O	 -4.537329346	 1.402863528	 2.017997754
C	 -4.391786925	 1.576463378	 -0.356050946
H	 -4.638589100	 2.623823291	 -0.377266400
C	 -4.132686525	 0.890277482	 -1.487867968
H	 -4.158859013	 1.350428148	 -2.464521181
N	 -3.814945720	 -0.441422319	 -1.471108481
H	 -3.602896963	 -0.937152996	 -2.321106161
C	 -3.725385428	 -1.193629219	 -0.312416966
O	 -3.422681828	 -2.370847212	 -0.307410240
C	 -0.010553899	 0.363493115	 -2.259187506
H	 -0.906404341	 0.829824675	 -1.846678960
H	 0.641259304	 1.166269133	 -2.603648304
H	 -0.304523737	 -0.223412699	 -3.128589527
C	 0.687641101	 -0.489012299	 -1.207487852
H	 1.582202600	 -0.943124892	 -1.639574079
H	 0.042859355	 -1.317047654	 -0.904012232
C	 1.080972217	 0.314403153	 0.025234513
H	 1.749079011	 1.128996965	 -0.270801112
H	 0.191142473	 0.794624976	 0.445228592
C	 1.756492609	 -0.526814485	 1.100054270
H	 2.657105151	 -0.981962412	 0.681168764
H	 1.096879400	 -1.353831207	 1.373141080
C	 2.118130464	 0.287061817	 2.335988379
H	 1.232762819	 0.739590417	 2.783485261
H	 2.599027400	 -0.328213113	 3.095213962
H	 2.804136394	 1.094441614	 2.079391928
