29
0  1  0  1  0  1  12  17 -1.44131 -1.38806 -1.49054 -1.54379 -1.51629 -1.53214  0.31392  0.31314  0.31326 -1.51131 -0.13040  0.52141 -0.07297 -1.82935
N	 -4.023612738	 -0.462979969	 0.821412336
H	 -3.965780266	 -0.974222566	 1.691809032
C	 -4.347803916	 0.897692987	 0.927019419
O	 -4.548426758	 1.402863528	 2.017996503
C	 -4.402884337	 1.576463378	 -0.356052197
H	 -4.649686512	 2.623823291	 -0.377267651
C	 -4.143783937	 0.890277482	 -1.487869219
H	 -4.169956425	 1.350428148	 -2.464522432
N	 -3.826043132	 -0.441422319	 -1.471109732
H	 -3.613994375	 -0.937152996	 -2.321107412
C	 -3.736482840	 -1.193629219	 -0.312418217
O	 -3.433779240	 -2.370847212	 -0.307411491
C	 2.624550744	 0.363493115	 -2.112734868
H	 1.819382643	 0.829824675	 -2.682309836
H	 3.248769148	 1.166269133	 -1.720478475
H	 3.230490062	 -0.223412699	 -2.802021226
C	 2.062849627	 -0.489012299	 -0.982230434
H	 2.884328026	 -0.943124892	 -0.423560564
H	 1.477641158	 -1.317047654	 -1.388889996
C	 1.191946301	 0.314403153	 -0.025234513
H	 1.782374070	 1.128996965	 0.405345130
H	 0.383305887	 0.794624976	 -0.585852637
C	 0.598885283	 -0.526814485	 1.097193185
H	 1.411957044	 -0.981962412	 1.667703773
H	 0.032578564	 -1.353831207	 0.662494795
C	 -0.290646125	 0.287061817	 2.028347809
H	 -1.120873615	 0.739590417	 1.485345378
H	 -0.707706299	 -0.328213113	 2.824429564
H	 0.274575885	 1.094441614	 2.494148146
