29
0  1  0  1  0  1  12  17 -4.54821 -4.02035 -4.83419 -5.36205 -4.98911 -5.20782  5.70093  5.69062  5.68326 -4.73700 -4.77240 12.44280 -1.31303 -11.09437
N	 -0.193956732	 -0.962618823	 0.712590401
H	 -0.209202940	 -1.971145596	 0.782913219
C	 -1.431394032	 -0.342617320	 0.484487936
O	 -2.446288709	 -1.008827810	 0.375721320
C	 -1.342834149	 1.105149389	 0.405973145
H	 -2.241624096	 1.669694512	 0.227676674
C	 -0.148055151	 1.711856371	 0.558955682
H	 -0.031342416	 2.784409709	 0.511179042
N	 1.000400145	 1.002787922	 0.789035724
H	 1.882507825	 1.468891572	 0.922613662
C	 1.041968961	 -0.377206309	 0.890476592
O	 2.064144745	 -0.995431677	 1.115089146
C	 1.143978111	 2.357364480	 4.087601081
H	 0.713129497	 2.668413175	 3.134818514
H	 0.509744200	 2.762797601	 4.875848732
H	 2.126858137	 2.817811892	 4.180722567
C	 1.216994575	 0.838493530	 4.177119422
H	 1.647378219	 0.548930674	 5.138410377
H	 1.891584167	 0.447332979	 3.412001257
C	 -0.147790615	 0.180326878	 4.022302663
H	 -0.819034875	 0.549202688	 4.803921904
H	 -0.595261484	 0.490591895	 3.072402437
C	 -0.091501677	 -1.340359673	 4.081938159
H	 0.332103819	 -1.642790088	 5.042574346
H	 0.600020066	 -1.702238612	 3.317435731
C	 -1.460784599	 -1.982232883	 3.898164508
H	 -1.899163594	 -1.708775200	 2.937978999
H	 -1.403845806	 -3.069001270	 3.942221696
H	 -2.148747377	 -1.653886900	 4.677397555
