29
0  1  0  1  0  1  12  17 -1.98123 -1.84959 -2.03590 -2.16754 -2.08403 -2.13267  1.34857  1.34655  1.34570 -2.09046 -0.77256  2.42779 -0.23452 -3.51117
N	 -3.543112906	 -0.462955456	 0.821371777
H	 -3.485280434	 -0.974198053	 1.691768473
C	 -3.867304084	 0.897717500	 0.926978860
O	 -4.067926926	 1.402888041	 2.017955944
C	 -3.922384505	 1.576487891	 -0.356092756
H	 -4.169186680	 2.623847804	 -0.377308210
C	 -3.663284105	 0.890301995	 -1.487909778
H	 -3.689456593	 1.350452661	 -2.464562991
N	 -3.345543300	 -0.441397806	 -1.471150291
H	 -3.133494543	 -0.937128483	 -2.321147971
C	 -3.255983008	 -1.193604706	 -0.312458776
O	 -2.953279408	 -2.370822699	 -0.307452050
C	 2.624550744	 0.363493115	 -2.112734868
H	 1.819382643	 0.829824675	 -2.682309836
H	 3.248769148	 1.166269133	 -1.720478475
H	 3.230490062	 -0.223412699	 -2.802021226
C	 2.062849627	 -0.489012299	 -0.982230434
H	 2.884328026	 -0.943124892	 -0.423560564
H	 1.477641158	 -1.317047654	 -1.388889996
C	 1.191946301	 0.314403153	 -0.025234513
H	 1.782374070	 1.128996965	 0.405345130
H	 0.383305887	 0.794624976	 -0.585852637
C	 0.598885283	 -0.526814485	 1.097193185
H	 1.411957044	 -0.981962412	 1.667703773
H	 0.032578564	 -1.353831207	 0.662494795
C	 -0.290646125	 0.287061817	 2.028347809
H	 -1.120873615	 0.739590417	 1.485345378
H	 -0.707706299	 -0.328213113	 2.824429564
H	 0.274575885	 1.094441614	 2.494148146
