29
0  1  0  1  0  1  12  17  8.70566 10.23003  7.95527  6.43090  7.68987  6.94382 31.18490 31.16883 31.12568  8.48181 -23.21390 61.73133 -5.29519 -24.74043
N	 -0.149112595	 -0.956727424	 1.246078479
H	 -0.164358803	 -1.965254197	 1.316401297
C	 -1.386549895	 -0.336725921	 1.017976014
O	 -2.401444572	 -1.002936411	 0.909209398
C	 -1.297990012	 1.111040788	 0.939461223
H	 -2.196779959	 1.675585911	 0.761164752
C	 -0.103211014	 1.717747770	 1.092443760
H	 0.013501721	 2.790301108	 1.044667120
N	 1.045244282	 1.008679321	 1.322523802
H	 1.927351962	 1.474782971	 1.456101740
C	 1.086813098	 -0.371314910	 1.423964670
O	 2.108988882	 -0.989540278	 1.648577224
C	 1.143978111	 2.357364480	 4.087601081
H	 0.713129497	 2.668413175	 3.134818514
H	 0.509744200	 2.762797601	 4.875848732
H	 2.126858137	 2.817811892	 4.180722567
C	 1.216994575	 0.838493530	 4.177119422
H	 1.647378219	 0.548930674	 5.138410377
H	 1.891584167	 0.447332979	 3.412001257
C	 -0.147790615	 0.180326878	 4.022302663
H	 -0.819034875	 0.549202688	 4.803921904
H	 -0.595261484	 0.490591895	 3.072402437
C	 -0.091501677	 -1.340359673	 4.081938159
H	 0.332103819	 -1.642790088	 5.042574346
H	 0.600020066	 -1.702238612	 3.317435731
C	 -1.460784599	 -1.982232883	 3.898164508
H	 -1.899163594	 -1.708775200	 2.937978999
H	 -1.403845806	 -3.069001270	 3.942221696
H	 -2.148747377	 -1.653886900	 4.677397555
