29
0  1  0  1  0  1  12  17 -2.44602 -2.35498 -2.55088 -2.64192 -2.59834 -2.62399  0.66042  0.66127  0.66020 -2.61132 -0.36680  1.28933 -0.22189 -3.31197
N	 -3.937505778	 -0.462981389	 0.821412962
H	 -3.879673306	 -0.974223986	 1.691809658
C	 -4.261696956	 0.897691567	 0.927020045
O	 -4.462319798	 1.402862108	 2.017997129
C	 -4.316777377	 1.576461958	 -0.356051571
H	 -4.563579552	 2.623821871	 -0.377267025
C	 -4.057676977	 0.890276062	 -1.487868593
H	 -4.083849465	 1.350426728	 -2.464521806
N	 -3.739936172	 -0.441423739	 -1.471109106
H	 -3.527887415	 -0.937154416	 -2.321106786
C	 -3.650375880	 -1.193630639	 -0.312417591
O	 -3.347672280	 -2.370848632	 -0.307410865
C	 0.319639682	 0.388020591	 -2.524130559
H	 -0.764035369	 0.300833811	 -2.614812900
H	 0.556267476	 1.451603611	 -2.496535760
H	 0.769077329	 -0.030196922	 -3.424039715
C	 0.814139331	 -0.310868365	 -1.264234442
H	 1.899215576	 -0.208763358	 -1.191151342
H	 0.613161901	 -1.383035608	 -1.323807719
C	 0.173645500	 0.247046605	 0.000000000
H	 0.395615875	 1.315813173	 0.077679025
H	 -0.915700491	 0.172624801	 -0.081189330
C	 0.635484005	 -0.457665270	 1.268581410
H	 1.719900121	 -0.357136890	 1.356122191
H	 0.436032403	 -1.527775360	 1.175274920
C	 -0.035400922	 0.094782541	 2.519750673
H	 -1.119462790	 -0.008565852	 2.464610518
H	 0.304154924	 -0.419633093	 3.417707783
H	 0.186523149	 1.155192350	 2.640534593
