29
0  1  0  1  0  1  12  17 -0.82542 -0.46041 -0.90559 -1.27059 -0.99339 -1.15692  5.75696  5.75099  5.74324 -0.99932 -4.37957 11.85367 -1.27031 -7.20311
N	 -3.073710486	 -0.462930943	 0.821329967
H	 -3.015878014	 -0.974173540	 1.691726663
C	 -3.397901664	 0.897742013	 0.926937050
O	 -3.598524506	 1.402912554	 2.017914134
C	 -3.452982085	 1.576512404	 -0.356134566
H	 -3.699784260	 2.623872317	 -0.377350020
C	 -3.193881685	 0.890326508	 -1.487951588
H	 -3.220054173	 1.350477174	 -2.464604801
N	 -2.876140880	 -0.441373293	 -1.471192101
H	 -2.664092123	 -0.937103970	 -2.321189781
C	 -2.786580588	 -1.193580193	 -0.312500586
O	 -2.483876988	 -2.370798186	 -0.307493860
C	 -0.010553899	 0.363493115	 -2.259187506
H	 -0.906404341	 0.829824675	 -1.846678960
H	 0.641259304	 1.166269133	 -2.603648304
H	 -0.304523737	 -0.223412699	 -3.128589527
C	 0.687641101	 -0.489012299	 -1.207487852
H	 1.582202600	 -0.943124892	 -1.639574079
H	 0.042859355	 -1.317047654	 -0.904012232
C	 1.080972217	 0.314403153	 0.025234513
H	 1.749079011	 1.128996965	 -0.270801112
H	 0.191142473	 0.794624976	 0.445228592
C	 1.756492609	 -0.526814485	 1.100054270
H	 2.657105151	 -0.981962412	 0.681168764
H	 1.096879400	 -1.353831207	 1.373141080
C	 2.118130464	 0.287061817	 2.335988379
H	 1.232762819	 0.739590417	 2.783485261
H	 2.599027400	 -0.328213113	 3.095213962
H	 2.804136394	 1.094441614	 2.079391928
