29
0  1  0  1  0  1  12  17 -2.85487 -2.70199 -2.90130 -3.05418 -2.96831 -3.01824  0.78300  0.77904  0.77835 -2.95147 -0.68056  2.08286 -0.50191 -3.85185
N	 0.166444503	 -0.462967712	 -0.910627049
H	 0.108612032	 -0.974210309	 -1.781023745
C	 0.490635681	 0.897705244	 -1.016234132
O	 0.691258523	 1.402875785	 -2.107211216
C	 0.545716103	 1.576475635	 0.266837484
H	 0.792518278	 2.623835548	 0.288052938
C	 0.286615703	 0.890289739	 1.398654506
H	 0.312788190	 1.350440405	 2.375307719
N	 -0.031125102	 -0.441410062	 1.381895019
H	 -0.243173860	 -0.937140739	 2.231892699
C	 -0.120685394	 -1.193616962	 0.223203504
O	 -0.423388994	 -2.370834955	 0.218196778
C	 -2.718922058	 0.363493115	 4.043874844
H	 -1.823071615	 0.829824675	 3.631366298
H	 -3.370735260	 1.166269133	 4.388335642
H	 -2.424952219	 -0.223412699	 4.913276865
C	 -3.417117057	 -0.489012299	 2.992175190
H	 -4.311678556	 -0.943124892	 3.424261417
H	 -2.772335312	 -1.317047654	 2.688699571
C	 -3.810448173	 0.314403153	 1.759452825
H	 -4.478554968	 1.128996965	 2.055488451
H	 -2.920618429	 0.794624976	 1.339458746
C	 -4.485968566	 -0.526814485	 0.684633068
H	 -5.386581108	 -0.981962412	 1.103518575
H	 -3.826355356	 -1.353831207	 0.411546258
C	 -4.847606421	 0.287061817	 -0.551301041
H	 -3.962238776	 0.739590417	 -0.998797922
H	 -5.328503357	 -0.328213113	 -1.310526623
H	 -5.533612350	 1.094441614	 -0.294704590
