29
0  1  0  1  0  1  12  17  7.01834  8.13379  6.94856  5.83310  6.76333  6.20794 21.94585 21.92740 21.88567  7.56279 -19.72394 49.76753 -5.73539 -16.74542
N	 -0.826046037	 -0.819843562	 -0.821289407
H	 -0.883878508	 -1.331086159	 -1.691686103
C	 -0.501854859	 0.540829394	 -0.926896490
O	 -0.301232017	 1.045999935	 -2.017873574
C	 -0.446774437	 1.219599785	 0.356175126
H	 -0.199972262	 2.266959698	 0.377390580
C	 -0.705874837	 0.533413889	 1.487992148
H	 -0.679702350	 0.993564555	 2.464645361
N	 -1.023615642	 -0.798285912	 1.471232661
H	 -1.235664400	 -1.294016589	 2.321230341
C	 -1.113175934	 -1.550492812	 0.312541146
O	 -1.415879534	 -2.727710805	 0.307534420
C	 -4.307559370	 -1.543119385	 2.524130559
H	 -3.690215878	 -0.648222651	 2.614812900
H	 -5.346963181	 -1.216253556	 2.496535760
H	 -4.170091202	 -2.141452561	 3.424039715
C	 -3.949553604	 -2.320813121	 1.264234442
H	 -4.580517256	 -3.209464211	 1.191151342
H	 -2.920540820	 -2.682845183	 1.323807719
C	 -4.112475225	 -1.487171707	 0.000000000
H	 -5.149039413	 -1.145020407	 -0.077679025
H	 -3.503351057	 -0.580981308	 0.081189330
C	 -3.733096093	 -2.239491523	 -1.268581410
H	 -4.362364281	 -3.128359237	 -1.356122191
H	 -2.706627768	 -2.601816413	 -1.175274920
C	 -3.876087468	 -1.382264228	 -2.519750673
H	 -3.244554200	 -0.495113307	 -2.464610518
H	 -3.600368384	 -1.933536033	 -3.417707783
H	 -4.905391335	 -1.044251206	 -2.640534593
