29
0  1  0  1  0  1  12  17 -2.27735 -2.17585 -2.39965 -2.50115 -2.44548 -2.47790  0.50159  0.50024  0.49969 -2.39377 -0.48132  1.27634 -0.24485 -2.94393
N	 0.340107285	 -0.641450122	 -0.821412962
H	 0.282274814	 -1.152692719	 -1.691809658
C	 0.664298463	 0.719222834	 -0.927020045
O	 0.864921305	 1.224393375	 -2.017997129
C	 0.719378885	 1.397993225	 0.356051571
H	 0.966181060	 2.445353138	 0.377267025
C	 0.460278485	 0.711807329	 1.487868593
H	 0.486450972	 1.171957995	 2.464521806
N	 0.142537680	 -0.619892472	 1.471109106
H	 -0.069511078	 -1.115623149	 2.321106786
C	 0.052977388	 -1.372099372	 0.312417591
O	 -0.249726212	 -2.549317365	 0.307410865
C	 -3.608776193	 2.172707929	 2.524130559
H	 -2.525101141	 2.085521149	 2.614812900
H	 -3.845403986	 3.236290949	 2.496535760
H	 -4.058213839	 1.754490416	 3.424039715
C	 -4.103275841	 1.473818973	 1.264234442
H	 -5.188352086	 1.575923980	 1.191151342
H	 -3.902298412	 0.401651730	 1.323807719
C	 -3.462782010	 2.031733943	 0.000000000
H	 -3.684752386	 3.100500512	 -0.077679025
H	 -2.373436019	 1.957312139	 0.081189330
C	 -3.924620516	 1.327022069	 -1.268581410
H	 -5.009036631	 1.427550449	 -1.356122191
H	 -3.725168913	 0.256911978	 -1.175274920
C	 -3.253735589	 1.879469879	 -2.519750673
H	 -2.169673721	 1.776121487	 -2.464610518
H	 -3.593291435	 1.365054246	 -3.417707783
H	 -3.475659659	 2.939879688	 -2.640534593
