27
0  1  0  1  0  1  12  15 12.04710 13.07484 11.71111 10.68337 11.57348 11.04616 27.14383 27.14333 27.11319 11.87343 -18.03880 51.22673 -4.72902 -16.58548
N	 -2.682541224	 -0.915125438	 0.030314099
H	 -2.432938104	 -1.894906076	 0.037367261
C	 -2.793753703	 -0.298904830	 1.285506067
O	 -2.596741441	 -0.935074541	 2.306296682
C	 -3.147887157	 1.107565019	 1.205169996
H	 -3.258328073	 1.666497566	 2.118242777
C	 -3.333997966	 1.683194062	 0.000008832
H	 -3.597581034	 2.724395122	 -0.111340802
N	 -3.195327287	 0.981133327	 -1.168048419
H	 -3.324319553	 1.425055091	 -2.062023210
C	 -2.851928819	 -0.359457103	 -1.220678357
O	 -2.714988187	 -0.969816676	 -2.262472153
C	 0.119925765	 -0.961921045	 -0.705222649
H	 -0.836898589	 -0.675485840	 -1.144549415
H	 0.340301342	 -1.973616373	 -1.041504469
C	 1.180713000	 0.055933712	 -1.127242705
H	 1.118666765	 0.326499826	 -2.180476808
H	 2.180136440	 -0.343812324	 -0.939583877
C	 0.911293508	 1.222353006	 -0.178971271
H	 0.000138838	 1.735917146	 -0.493576594
H	 1.713235749	 1.959307449	 -0.152787970
C	 0.690410900	 0.531903262	 1.173012890
H	 0.064030856	 1.114210316	 1.846701078
H	 1.651571560	 0.393704447	 1.668536737
C	 0.067135129	 -0.845231065	 0.832413944
H	 -0.949659841	 -0.927362601	 1.212494375
H	 0.641614620	 -1.645561557	 1.296360114
