27
0  1  0  1  0  1  12  15 -2.50739 -2.38736 -2.64666 -2.76669 -2.69540 -2.73770  1.00975  1.00801  1.00543 -2.65471 -0.68383  1.99420 -0.22405 -3.74103
N	 -3.763316564	 -0.915250306	 0.030302995
H	 -3.513713444	 -1.895030944	 0.037356157
C	 -3.874529043	 -0.299029698	 1.285494963
O	 -3.677516781	 -0.935199409	 2.306285578
C	 -4.228662497	 1.107440151	 1.205158892
H	 -4.339103413	 1.666372698	 2.118231673
C	 -4.414773306	 1.683069194	 -0.000002272
H	 -4.678356374	 2.724270254	 -0.111351906
N	 -4.276102627	 0.981008459	 -1.168059523
H	 -4.405094893	 1.424930223	 -2.062034314
C	 -3.932704159	 -0.359581971	 -1.220689461
O	 -3.795763527	 -0.969941544	 -2.262483257
C	 0.047651631	 -1.069919336	 -0.646084449
H	 -1.013660099	 -1.300271349	 -0.540626689
H	 0.482869331	 -1.835885402	 -1.285662304
C	 0.191487991	 0.341962358	 -1.216435196
H	 -0.498822300	 0.545256369	 -2.034054350
H	 1.207980096	 0.495483856	 -1.586617437
C	 -0.041515281	 1.217401353	 0.013058841
H	 -1.104563741	 1.206583609	 0.263535219
H	 0.253922416	 2.256593742	 -0.127278321
C	 0.767788353	 0.509013030	 1.106944009
H	 0.382701063	 0.700115710	 2.107182373
H	 1.796262613	 0.869909676	 1.085335770
C	 0.726348708	 -0.995258167	 0.737579412
H	 0.189356694	 -1.574783648	 1.486490975
H	 1.735734680	 -1.401124959	 0.690529042
