27
0  1  0  1  0  1  12  15 -2.44543 -2.28188 -2.60691 -2.77046 -2.66502 -2.72658  1.94334  1.94028  1.93886 -2.58441 -1.03084  3.54214 -0.43201 -4.66370
N	 -3.557346616	 -0.915225325	 0.030305267
H	 -3.307743496	 -1.895005963	 0.037358429
C	 -3.668559095	 -0.299004717	 1.285497235
O	 -3.471546833	 -0.935174428	 2.306287850
C	 -4.022692549	 1.107465132	 1.205161164
H	 -4.133133465	 1.666397679	 2.118233945
C	 -4.208803358	 1.683094175	 -0.000000000
H	 -4.472386426	 2.724295235	 -0.111349634
N	 -4.070132679	 0.981033440	 -1.168057251
H	 -4.199124945	 1.424955204	 -2.062032042
C	 -3.726734211	 -0.359556990	 -1.220687189
O	 -3.589793579	 -0.969916563	 -2.262480985
C	 1.002905903	 -1.069919336	 -0.575397009
H	 0.380920939	 -1.300271349	 -1.441791049
H	 1.774405423	 -1.835885402	 -0.518276352
C	 1.568762319	 0.341962358	 -0.736006441
H	 1.931686131	 0.545256369	 -1.742642267
H	 2.397595596	 0.495483856	 -0.040789576
C	 0.387487613	 1.217401353	 -0.323046175
H	 -0.360955524	 1.206583609	 -1.118434958
H	 0.656742009	 2.256593742	 -0.137358205
C	 -0.155192914	 0.509013030	 0.924773915
H	 -1.213968392	 0.700115710	 1.091397721
H	 0.377757499	 0.869909676	 1.804654632
C	 0.143966387	 -0.995258167	 0.704203831
H	 -0.773106058	 -1.574783648	 0.613610887
H	 0.689406189	 -1.401124959	 1.554832540
