27
0  1  0  1  0  1  12  15  9.71370 10.62797  8.87312  7.95885  8.73170  8.27716 24.25548 24.24603 24.22769  9.19602 -17.38676 47.78741 -5.35112 -15.85352
N	 -1.010857423	 -0.537077325	 -0.030314099
H	 -1.260460543	 -1.516857963	 -0.037367261
C	 -0.899644944	 0.079143283	 -1.285506067
O	 -1.096657206	 -0.557026428	 -2.306296682
C	 -0.545511490	 1.485613132	 -1.205169996
H	 -0.435070574	 2.044545679	 -2.118242777
C	 -0.359400681	 2.061242175	 -0.000008832
H	 -0.095817613	 3.102443235	 0.111340802
N	 -0.498071360	 1.359181440	 1.168048419
H	 -0.369079094	 1.803103204	 2.062023210
C	 -0.841469828	 0.018591010	 1.220678357
O	 -0.978410460	 -0.591768563	 2.262472153
C	 -4.534912533	 0.999007600	 0.705222649
H	 -3.808440192	 0.313591005	 1.144549415
H	 -5.521254177	 0.684010784	 1.041504469
C	 -4.183818075	 2.426603672	 1.127242705
H	 -3.918477829	 2.508153114	 2.180476808
H	 -5.029720016	 3.092256742	 0.939583877
C	 -3.038959588	 2.776489195	 0.178971271
H	 -2.138622662	 2.244188174	 0.493576594
H	 -2.801709440	 3.839468770	 0.152787970
C	 -3.526465302	 2.239974373	 -1.173012890
H	 -2.708982578	 1.988666869	 -1.846701078
H	 -4.126729317	 3.003264514	 -1.668536737
C	 -4.407460729	 1.011634559	 -0.832413944
H	 -3.970191240	 0.089998516	 -1.212494375
H	 -5.387807012	 1.108983146	 -1.296360114
