27
0  1  0  1  0  1  12  15 -3.80401 -3.35074 -4.14604 -4.59931 -4.27502 -4.46567  5.42269  5.41454  5.40703 -3.99489 -4.14541 11.15248 -1.03496 -9.96700
N	 0.201542472	 -0.847837732	 1.012748611
H	 0.456210413	 -1.799901420	 1.238670138
C	 -1.173236315	 -0.576832883	 0.948385680
O	 -1.987833364	 -1.459413745	 1.155802852
C	 -1.470901826	 0.808007189	 0.626461710
H	 -2.500543039	 1.112502110	 0.552796887
C	 -0.462299920	 1.679813969	 0.423793030
H	 -0.632622342	 2.718494484	 0.182738092
N	 0.851441416	 1.302842655	 0.515732705
H	 1.595505436	 1.965730760	 0.374861988
C	 1.260074354	 0.016313389	 0.825146168
O	 2.428117261	 -0.304864871	 0.920781674
C	 1.057600997	 -0.863988642	 4.427229255
H	 1.511453506	 -0.956044881	 3.439246701
H	 1.602103497	 -1.527968909	 5.096426927
C	 1.111914468	 0.601963360	 4.860165237
H	 2.070204459	 1.074862294	 4.649440948
H	 0.923799182	 0.683600902	 5.933388369
C	 -0.055437115	 1.214777837	 4.089394036
H	 0.218867161	 1.303559440	 3.035922414
H	 -0.339851539	 2.205918962	 4.441028050
C	 -1.172381607	 0.177205928	 4.260422350
H	 -1.897920886	 0.200819782	 3.449050438
H	 -1.716467237	 0.381903084	 5.182670966
C	 -0.449345262	 -1.189341903	 4.364079237
H	 -0.692009808	 -1.833498028	 3.520719563
H	 -0.764451489	 -1.716744317	 5.263165657
