27
0  1  0  1  0  1  12  15 -2.58705 -2.46149 -2.57588 -2.70144 -2.63609 -2.67405  0.48889  0.48155  0.48114 -2.67049 -0.52885  1.36904 -0.23805 -3.27263
N	 0.148034651	 -0.726251148	 -0.030300851
H	 -0.101568469	 -1.706031786	 -0.037354013
C	 0.259247130	 -0.110030540	 -1.285492819
O	 0.062234868	 -0.746200251	 -2.306283434
C	 0.613380584	 1.296439309	 -1.205156748
H	 0.723821500	 1.855371856	 -2.118229529
C	 0.799491393	 1.872068352	 0.000004416
H	 1.063074461	 2.913269412	 0.111354050
N	 0.660820714	 1.170007617	 1.168061667
H	 0.789812980	 1.613929381	 2.062036458
C	 0.317422246	 -0.170582813	 1.220691605
O	 0.180481614	 -0.780942386	 2.262485401
C	 -3.238085664	 -2.852162250	 0.705222649
H	 -2.281261310	 -2.565727045	 1.144549415
H	 -3.458461242	 -3.863857578	 1.041504469
C	 -4.298872900	 -1.834307494	 1.127242705
H	 -4.236826665	 -1.563741379	 2.180476808
H	 -5.298296339	 -2.234053529	 0.939583877
C	 -4.029453408	 -0.667888199	 0.178971271
H	 -3.118298738	 -0.154324059	 0.493576594
H	 -4.831395649	 0.069066244	 0.152787970
C	 -3.808570799	 -1.358337943	 -1.173012890
H	 -3.182190755	 -0.776030889	 -1.846701078
H	 -4.769731460	 -1.496536758	 -1.668536737
C	 -3.185295029	 -2.735472270	 -0.832413944
H	 -2.168500059	 -2.817603806	 -1.212494375
H	 -3.759774520	 -3.535802762	 -1.296360114
