27
0  1  0  1  0  1  12  15 -1.08376 -0.66836 -1.44452 -1.85992 -1.53752 -1.72787  7.23004  7.22636  7.21696 -1.36109 -5.28984 14.38546 -1.31713 -9.13957
N	 -3.123929073	 -0.915175446	 0.030309683
H	 -2.874325953	 -1.894956084	 0.037362845
C	 -3.235141552	 -0.298954838	 1.285501651
O	 -3.038129290	 -0.935124549	 2.306292266
C	 -3.589275006	 1.107515011	 1.205165580
H	 -3.699715922	 1.666447558	 2.118238361
C	 -3.775385815	 1.683144054	 0.000004416
H	 -4.038968883	 2.724345114	 -0.111345218
N	 -3.636715136	 0.981083319	 -1.168052835
H	 -3.765707402	 1.425005083	 -2.062027626
C	 -3.293316668	 -0.359507111	 -1.220682773
O	 -3.156376036	 -0.969866684	 -2.262476569
C	 1.149997408	 -0.891233605	 -0.705222649
H	 0.423525067	 -1.576650200	 -1.144549415
H	 2.136339051	 -1.206230421	 -1.041504469
C	 0.798902949	 0.536362467	 -1.127242705
H	 0.533562703	 0.617911909	 -2.180476808
H	 1.644804891	 1.202015537	 -0.939583877
C	 -0.345955538	 0.886247990	 -0.178971271
H	 -1.246292464	 0.353946969	 -0.493576594
H	 -0.583205686	 1.949227565	 -0.152787970
C	 0.141550177	 0.349733168	 1.173012890
H	 -0.675932547	 0.098425664	 1.846701078
H	 0.741814191	 1.113023309	 1.668536737
C	 1.022545603	 -0.878606646	 0.832413944
H	 0.585276114	 -1.800242689	 1.212494375
H	 2.002891886	 -0.781258059	 1.296360114
