27
0  1  0  1  0  1  12  15 -2.45466 -2.18722 -2.70988 -2.97732 -2.78346 -2.89769  3.61926  3.61541  3.61031 -2.68190 -2.81346  7.48511 -0.72077 -6.63279
N	 -3.340637844	 -0.915200385	 0.030307475
H	 -3.091034724	 -1.894981023	 0.037360637
C	 -3.451850323	 -0.298979777	 1.285499443
O	 -3.254838061	 -0.935149488	 2.306290058
C	 -3.805983777	 1.107490072	 1.205163372
H	 -3.916424693	 1.666422619	 2.118236153
C	 -3.992094586	 1.683119115	 0.000002208
H	 -4.255677654	 2.724320175	 -0.111347426
N	 -3.853423907	 0.981058380	 -1.168055043
H	 -3.982416173	 1.424980144	 -2.062029834
C	 -3.510025439	 -0.359532050	 -1.220684981
O	 -3.373084807	 -0.969891623	 -2.262478777
C	 1.149997408	 -0.891233605	 -0.705222649
H	 0.423525067	 -1.576650200	 -1.144549415
H	 2.136339051	 -1.206230421	 -1.041504469
C	 0.798902949	 0.536362467	 -1.127242705
H	 0.533562703	 0.617911909	 -2.180476808
H	 1.644804891	 1.202015537	 -0.939583877
C	 -0.345955538	 0.886247990	 -0.178971271
H	 -1.246292464	 0.353946969	 -0.493576594
H	 -0.583205686	 1.949227565	 -0.152787970
C	 0.141550177	 0.349733168	 1.173012890
H	 -0.675932547	 0.098425664	 1.846701078
H	 0.741814191	 1.113023309	 1.668536737
C	 1.022545603	 -0.878606646	 0.832413944
H	 0.585276114	 -1.800242689	 1.212494375
H	 2.002891886	 -0.781258059	 1.296360114
