27
0  1  0  1  0  1  12  15 10.96199 12.40529  9.99246  8.54916  9.76632  9.04828 32.55868 32.54444 32.51038 10.78201 -23.42218 63.16333 -5.23595 -23.72320
N	 0.218981112	 -0.857283172	 1.579455194
H	 0.473649053	 -1.809346860	 1.805376721
C	 -1.155797675	 -0.586278323	 1.515092263
O	 -1.970394724	 -1.468859185	 1.722509435
C	 -1.453463186	 0.798561749	 1.193168293
H	 -2.483104399	 1.103056670	 1.119503470
C	 -0.444861280	 1.670368529	 0.990499613
H	 -0.615183702	 2.709049044	 0.749444675
N	 0.868880056	 1.293397215	 1.082439288
H	 1.612944076	 1.956285320	 0.941568571
C	 1.277512994	 0.006867949	 1.391852751
O	 2.445555901	 -0.314310311	 1.487488257
C	 1.057600997	 -0.863988642	 4.427229255
H	 1.511453506	 -0.956044881	 3.439246701
H	 1.602103497	 -1.527968909	 5.096426927
C	 1.111914468	 0.601963360	 4.860165237
H	 2.070204459	 1.074862294	 4.649440948
H	 0.923799182	 0.683600902	 5.933388369
C	 -0.055437115	 1.214777837	 4.089394036
H	 0.218867161	 1.303559440	 3.035922414
H	 -0.339851539	 2.205918962	 4.441028050
C	 -1.172381607	 0.177205928	 4.260422350
H	 -1.897920886	 0.200819782	 3.449050438
H	 -1.716467237	 0.381903084	 5.182670966
C	 -0.449345262	 -1.189341903	 4.364079237
H	 -0.692009808	 -1.833498028	 3.520719563
H	 -0.764451489	 -1.716744317	 5.263165657
