27
0  1  0  1  0  1  12  15 -1.81314 -1.74297 -1.86723 -1.93740 -1.89845 -1.92056  0.36639  0.36407  0.36504 -1.90634 -0.25117  0.75147 -0.10625 -2.30038
N	 -3.994749312	 -0.915275269	 0.030300851
H	 -3.745146192	 -1.895055907	 0.037354013
C	 -4.105961791	 -0.299054661	 1.285492819
O	 -3.908949529	 -0.935224372	 2.306283434
C	 -4.460095245	 1.107415188	 1.205156748
H	 -4.570536161	 1.666347735	 2.118229529
C	 -4.646206054	 1.683044231	 -0.000004416
H	 -4.909789122	 2.724245291	 -0.111354050
N	 -4.507535375	 0.980983496	 -1.168061667
H	 -4.636527641	 1.424905260	 -2.062036458
C	 -4.164136907	 -0.359606934	 -1.220691605
O	 -4.027196275	 -0.969966507	 -2.262485401
C	 0.119925765	 -0.961921045	 -0.705222649
H	 -0.836898589	 -0.675485840	 -1.144549415
H	 0.340301342	 -1.973616373	 -1.041504469
C	 1.180713000	 0.055933712	 -1.127242705
H	 1.118666765	 0.326499826	 -2.180476808
H	 2.180136440	 -0.343812324	 -0.939583877
C	 0.911293508	 1.222353006	 -0.178971271
H	 0.000138838	 1.735917146	 -0.493576594
H	 1.713235749	 1.959307449	 -0.152787970
C	 0.690410900	 0.531903262	 1.173012890
H	 0.064030856	 1.114210316	 1.846701078
H	 1.651571560	 0.393704447	 1.668536737
C	 0.067135129	 -0.845231065	 0.832413944
H	 -0.949659841	 -0.927362601	 1.212494375
H	 0.641614620	 -1.645561557	 1.296360114
