27
0  1  0  1  0  1  12  15 -0.93043 -0.45138 -1.11477 -1.59383 -1.21478 -1.44040  7.14059  7.13655  7.12117 -0.74476 -5.60993 15.37040 -1.80727 -8.69796
N	 -0.638426556	 -0.915175362	 -0.219333868
H	 -0.888029676	 -1.894956000	 -0.226387030
C	 -0.527214077	 -0.298954754	 -1.474525836
O	 -0.724226339	 -0.935124465	 -2.495316451
C	 -0.173080623	 1.107515095	 -1.394189765
H	 -0.062639707	 1.666447642	 -2.307262546
C	 0.013030186	 1.683144138	 -0.189028601
H	 0.276613254	 2.724345198	 -0.077678967
N	 -0.125640493	 0.981083403	 0.979028650
H	 0.003351773	 1.425005167	 1.873003441
C	 -0.469038961	 -0.359507027	 1.031658588
O	 -0.605979593	 -0.969866600	 2.073452384
C	 -4.566858148	 -1.069919336	 -1.314844196
H	 -3.944873183	 -1.300271349	 -0.448450156
H	 -5.338357668	 -1.835885402	 -1.371964853
C	 -5.132714565	 0.341962358	 -1.154234764
H	 -5.495638375	 0.545256369	 -0.147598938
H	 -5.961547841	 0.495483856	 -1.849451629
C	 -3.951439858	 1.217401353	 -1.567195030
H	 -3.202996721	 1.206583609	 -0.771806247
H	 -4.220694254	 2.256593742	 -1.752883000
C	 -3.408759330	 0.509013030	 -2.815015120
H	 -2.349983852	 0.700115710	 -2.981638926
H	 -3.941709744	 0.869909676	 -3.694895837
C	 -3.707918632	 -0.995258167	 -2.594445036
H	 -2.790846186	 -1.574783648	 -2.503852092
H	 -4.253358433	 -1.401124959	 -3.445073745
