27
0  1  0  1  0  1  12  15 11.59510 12.59491 10.84622  9.84641 10.70035 10.19838 27.69261 27.68771 27.66807 10.85745 -17.60746 52.55834 -6.38834 -17.70509
N	 -2.683459058	 -0.915125399	 0.030314228
H	 -2.433855938	 -1.894906037	 0.037367390
C	 -2.794671537	 -0.298904791	 1.285506196
O	 -2.597659275	 -0.935074502	 2.306296811
C	 -3.148804991	 1.107565058	 1.205170125
H	 -3.259245907	 1.666497605	 2.118242906
C	 -3.334915800	 1.683194101	 0.000008961
H	 -3.598498868	 2.724395161	 -0.111340673
N	 -3.196245121	 0.981133366	 -1.168048290
H	 -3.325237387	 1.425055130	 -2.062023081
C	 -2.852846653	 -0.359457064	 -1.220678228
O	 -2.715906021	 -0.969816637	 -2.262472024
C	 1.002905903	 -1.069919336	 -0.575397009
H	 0.380920939	 -1.300271349	 -1.441791049
H	 1.774405423	 -1.835885402	 -0.518276352
C	 1.568762319	 0.341962358	 -0.736006441
H	 1.931686131	 0.545256369	 -1.742642267
H	 2.397595596	 0.495483856	 -0.040789576
C	 0.387487613	 1.217401353	 -0.323046175
H	 -0.360955524	 1.206583609	 -1.118434958
H	 0.656742009	 2.256593742	 -0.137358205
C	 -0.155192914	 0.509013030	 0.924773915
H	 -1.213968392	 0.700115710	 1.091397721
H	 0.377757499	 0.869909676	 1.804654632
C	 0.143966387	 -0.995258167	 0.704203831
H	 -0.773106058	 -1.574783648	 0.613610887
H	 0.689406189	 -1.401124959	 1.554832540
