27
0  1  0  1  0  1  12  15 -2.18391 -2.07709 -2.24087 -2.34769 -2.28318 -2.32016  0.76860  0.76650  0.76725 -2.29058 -0.53767  1.56637 -0.18488 -3.13440
N	 -3.776047964	 -0.915250297	 0.030303059
H	 -3.526444844	 -1.895030935	 0.037356221
C	 -3.887260443	 -0.299029689	 1.285495027
O	 -3.690248181	 -0.935199400	 2.306285642
C	 -4.241393897	 1.107440160	 1.205158956
H	 -4.351834813	 1.666372707	 2.118231737
C	 -4.427504706	 1.683069203	 -0.000002208
H	 -4.691087774	 2.724270263	 -0.111351842
N	 -4.288834027	 0.981008468	 -1.168059459
H	 -4.417826293	 1.424930232	 -2.062034250
C	 -3.945435559	 -0.359581962	 -1.220689397
O	 -3.808494927	 -0.969941535	 -2.262483193
C	 0.119925765	 -0.961921045	 -0.705222649
H	 -0.836898589	 -0.675485840	 -1.144549415
H	 0.340301342	 -1.973616373	 -1.041504469
C	 1.180713000	 0.055933712	 -1.127242705
H	 1.118666765	 0.326499826	 -2.180476808
H	 2.180136440	 -0.343812324	 -0.939583877
C	 0.911293508	 1.222353006	 -0.178971271
H	 0.000138838	 1.735917146	 -0.493576594
H	 1.713235749	 1.959307449	 -0.152787970
C	 0.690410900	 0.531903262	 1.173012890
H	 0.064030856	 1.114210316	 1.846701078
H	 1.651571560	 0.393704447	 1.668536737
C	 0.067135129	 -0.845231065	 0.832413944
H	 -0.949659841	 -0.927362601	 1.212494375
H	 0.641614620	 -1.645561557	 1.296360114
