27
0  1  0  1  0  1  12  15 57.56095 59.91777 55.89603 53.53921 55.68159 54.40584 86.59919 86.60021 86.51206 52.35468 -57.95319 159.42533 -15.06552 -34.05194
N	 -2.257093987	 -0.915075687	 0.030318515
H	 -2.007490867	 -1.894856325	 0.037371677
C	 -2.368306466	 -0.298855079	 1.285510483
O	 -2.171294204	 -0.935024790	 2.306301098
C	 -2.722439920	 1.107614770	 1.205174412
H	 -2.832880836	 1.666547317	 2.118247193
C	 -2.908550729	 1.683243813	 0.000013248
H	 -3.172133797	 2.724444873	 -0.111336386
N	 -2.769880050	 0.981183078	 -1.168044003
H	 -2.898872316	 1.425104842	 -2.062018794
C	 -2.426481582	 -0.359407352	 -1.220673941
O	 -2.289540950	 -0.969766925	 -2.262467737
C	 1.149997408	 -0.891233605	 -0.705222649
H	 0.423525067	 -1.576650200	 -1.144549415
H	 2.136339051	 -1.206230421	 -1.041504469
C	 0.798902949	 0.536362467	 -1.127242705
H	 0.533562703	 0.617911909	 -2.180476808
H	 1.644804891	 1.202015537	 -0.939583877
C	 -0.345955538	 0.886247990	 -0.178971271
H	 -1.246292464	 0.353946969	 -0.493576594
H	 -0.583205686	 1.949227565	 -0.152787970
C	 0.141550177	 0.349733168	 1.173012890
H	 -0.675932547	 0.098425664	 1.846701078
H	 0.741814191	 1.113023309	 1.668536737
C	 1.022545603	 -0.878606646	 0.832413944
H	 0.585276114	 -1.800242689	 1.212494375
H	 2.002891886	 -0.781258059	 1.296360114
