27
0  1  0  1  0  1  12  15 12.86169 14.02365 12.34296 11.18100 12.18671 11.58831 29.02372 29.01555 28.97531 13.65667 -21.12484 57.95953 -5.78049 -17.39754
N	 -1.053717319	 -0.915125399	 -0.408362469
H	 -1.303320439	 -1.894906037	 -0.415415631
C	 -0.942504840	 -0.298904791	 -1.663554437
O	 -1.139517102	 -0.935074502	 -2.684345052
C	 -0.588371386	 1.107565058	 -1.583218366
H	 -0.477930470	 1.666497605	 -2.496291147
C	 -0.402260577	 1.683194101	 -0.378057202
H	 -0.138677509	 2.724395161	 -0.266707568
N	 -0.540931256	 0.981133366	 0.790000049
H	 -0.411938990	 1.425055130	 1.683974840
C	 -0.884329724	 -0.359457064	 0.842629987
O	 -1.021270356	 -0.969816637	 1.884423783
C	 -4.566858148	 -1.069919336	 -1.314844196
H	 -3.944873183	 -1.300271349	 -0.448450156
H	 -5.338357668	 -1.835885402	 -1.371964853
C	 -5.132714565	 0.341962358	 -1.154234764
H	 -5.495638375	 0.545256369	 -0.147598938
H	 -5.961547841	 0.495483856	 -1.849451629
C	 -3.951439858	 1.217401353	 -1.567195030
H	 -3.202996721	 1.206583609	 -0.771806247
H	 -4.220694254	 2.256593742	 -1.752883000
C	 -3.408759330	 0.509013030	 -2.815015120
H	 -2.349983852	 0.700115710	 -2.981638926
H	 -3.941709744	 0.869909676	 -3.694895837
C	 -3.707918632	 -0.995258167	 -2.594445036
H	 -2.790846186	 -1.574783648	 -2.503852092
H	 -4.253358433	 -1.401124959	 -3.445073745
