27
0  1  0  1  0  1  12  15 -1.92694 -1.85416 -1.96712 -2.03989 -1.99959 -2.02311  0.18089  0.17961  0.17910 -2.03531 -0.43771  0.88873 -0.20176 -2.28457
N	 0.177217851	 -0.915275288	 -0.219324843
H	 -0.072385269	 -1.895055926	 -0.226378005
C	 0.288430330	 -0.299054680	 -1.474516811
O	 0.091418068	 -0.935224391	 -2.495307426
C	 0.642563784	 1.107415169	 -1.394180740
H	 0.753004700	 1.666347716	 -2.307253521
C	 0.828674593	 1.683044212	 -0.189019576
H	 1.092257661	 2.724245272	 -0.077669942
N	 0.690003914	 0.980983477	 0.979037675
H	 0.818996180	 1.424905241	 1.873012466
C	 0.346605446	 -0.359606953	 1.031667613
O	 0.209664814	 -0.969966526	 2.073461409
C	 -3.712271532	 -1.069919336	 2.536325654
H	 -2.650959801	 -1.300271349	 2.430867894
H	 -4.147489232	 -1.835885402	 3.175903509
C	 -3.856107893	 0.341962358	 3.106676402
H	 -3.165797600	 0.545256369	 3.924295555
H	 -4.872599997	 0.495483856	 3.476858642
C	 -3.623104620	 1.217401353	 1.877182364
H	 -2.560056160	 1.206583609	 1.626705986
H	 -3.918542317	 2.256593742	 2.017519526
C	 -4.432408253	 0.509013030	 0.783297196
H	 -4.047320963	 0.700115710	 -0.216941168
H	 -5.460882514	 0.869909676	 0.804905435
C	 -4.390968609	 -0.995258167	 1.152661793
H	 -3.853976594	 -1.574783648	 0.403750230
H	 -5.400354580	 -1.401124959	 1.199712163
