27
0  1  0  1  0  1  12  15 -2.51389 -2.22833 -2.72649 -3.01204 -2.81560 -2.93236  3.86370  3.85602  3.84846 -2.65926 -2.54328  7.38120 -0.69372 -6.80346
N	 -3.351376668	 -0.915200344	 0.030307539
H	 -3.101773548	 -1.894980982	 0.037360701
C	 -3.462589147	 -0.298979736	 1.285499507
O	 -3.265576885	 -0.935149447	 2.306290122
C	 -3.816722601	 1.107490113	 1.205163436
H	 -3.927163517	 1.666422660	 2.118236217
C	 -4.002833410	 1.683119156	 0.000002272
H	 -4.266416478	 2.724320216	 -0.111347362
N	 -3.864162731	 0.981058421	 -1.168054979
H	 -3.993154997	 1.424980185	 -2.062029770
C	 -3.520764263	 -0.359532009	 -1.220684917
O	 -3.383823631	 -0.969891582	 -2.262478713
C	 0.047651631	 -1.069919336	 -0.646084449
H	 -1.013660099	 -1.300271349	 -0.540626689
H	 0.482869331	 -1.835885402	 -1.285662304
C	 0.191487991	 0.341962358	 -1.216435196
H	 -0.498822300	 0.545256369	 -2.034054350
H	 1.207980096	 0.495483856	 -1.586617437
C	 -0.041515281	 1.217401353	 0.013058841
H	 -1.104563741	 1.206583609	 0.263535219
H	 0.253922416	 2.256593742	 -0.127278321
C	 0.767788353	 0.509013030	 1.106944009
H	 0.382701063	 0.700115710	 2.107182373
H	 1.796262613	 0.869909676	 1.085335770
C	 0.726348708	 -0.995258167	 0.737579412
H	 0.189356694	 -1.574783648	 1.486490975
H	 1.735734680	 -1.401124959	 0.690529042
