27
0  1  0  1  0  1  12  15 -0.84225 -0.44165 -1.16000 -1.56060 -1.25715 -1.43422  7.49437  7.48947  7.48559 -1.01125 -4.48565 14.07453 -1.63429 -8.96583
N	 -3.120402837	 -0.915175362	 0.030309747
H	 -2.870799717	 -1.894956000	 0.037362909
C	 -3.231615316	 -0.298954754	 1.285501715
O	 -3.034603054	 -0.935124465	 2.306292330
C	 -3.585748770	 1.107515095	 1.205165644
H	 -3.696189686	 1.666447642	 2.118238425
C	 -3.771859579	 1.683144138	 0.000004480
H	 -4.035442647	 2.724345198	 -0.111345154
N	 -3.633188900	 0.981083403	 -1.168052771
H	 -3.762181166	 1.425005167	 -2.062027562
C	 -3.289790432	 -0.359507027	 -1.220682709
O	 -3.152849800	 -0.969866600	 -2.262476505
C	 1.002905903	 -1.069919336	 -0.575397009
H	 0.380920939	 -1.300271349	 -1.441791049
H	 1.774405423	 -1.835885402	 -0.518276352
C	 1.568762319	 0.341962358	 -0.736006441
H	 1.931686131	 0.545256369	 -1.742642267
H	 2.397595596	 0.495483856	 -0.040789576
C	 0.387487613	 1.217401353	 -0.323046175
H	 -0.360955524	 1.206583609	 -1.118434958
H	 0.656742009	 2.256593742	 -0.137358205
C	 -0.155192914	 0.509013030	 0.924773915
H	 -1.213968392	 0.700115710	 1.091397721
H	 0.377757499	 0.869909676	 1.804654632
C	 0.143966387	 -0.995258167	 0.704203831
H	 -0.773106058	 -1.574783648	 0.613610887
H	 0.689406189	 -1.401124959	 1.554832540
