27
0  1  0  1  0  1  12  15 -2.37210 -2.21313 -2.57612 -2.73508 -2.62967 -2.69166  1.62024  1.61873  1.61625 -2.51791 -1.28702  3.43160 -0.42093 -4.24155
N	 -0.223135794	 -0.915225325	 -0.030305267
H	 -0.472738914	 -1.895005963	 -0.037358429
C	 -0.111923315	 -0.299004717	 -1.285497235
O	 -0.308935577	 -0.935174428	 -2.306287850
C	 0.242210139	 1.107465132	 -1.205161164
H	 0.352651055	 1.666397679	 -2.118233945
C	 0.428320948	 1.683094175	 0.000000000
H	 0.691904016	 2.724295235	 0.111349634
N	 0.289650269	 0.981033440	 1.168057251
H	 0.418642535	 1.424955204	 2.062032042
C	 -0.053748199	 -0.359556990	 1.220687189
O	 -0.190688831	 -0.969916563	 2.262480985
C	 -4.534912533	 0.999007600	 0.705222649
H	 -3.808440192	 0.313591005	 1.144549415
H	 -5.521254177	 0.684010784	 1.041504469
C	 -4.183818075	 2.426603672	 1.127242705
H	 -3.918477829	 2.508153114	 2.180476808
H	 -5.029720016	 3.092256742	 0.939583877
C	 -3.038959588	 2.776489195	 0.178971271
H	 -2.138622662	 2.244188174	 0.493576594
H	 -2.801709440	 3.839468770	 0.152787970
C	 -3.526465302	 2.239974373	 -1.173012890
H	 -2.708982578	 1.988666869	 -1.846701078
H	 -4.126729317	 3.003264514	 -1.668536737
C	 -4.407460729	 1.011634559	 -0.832413944
H	 -3.970191240	 0.089998516	 -1.212494375
H	 -5.387807012	 1.108983146	 -1.296360114
