27
0  1  0  1  0  1  12  15 -1.86926 -1.80200 -1.97313 -2.04038 -2.00406 -2.02527  0.50089  0.50034  0.49984 -1.97311 -0.19466  0.85187 -0.12596 -2.50436
N	 -3.994290395	 -0.915275288	 0.030300787
H	 -3.744687275	 -1.895055926	 0.037353949
C	 -4.105502874	 -0.299054680	 1.285492755
O	 -3.908490612	 -0.935224391	 2.306283370
C	 -4.459636328	 1.107415169	 1.205156684
H	 -4.570077244	 1.666347716	 2.118229465
C	 -4.645747137	 1.683044212	 -0.000004480
H	 -4.909330205	 2.724245272	 -0.111354114
N	 -4.507076458	 0.980983477	 -1.168061731
H	 -4.636068724	 1.424905241	 -2.062036522
C	 -4.163677990	 -0.359606953	 -1.220691669
O	 -4.026737358	 -0.969966526	 -2.262485465
C	 1.002905903	 -1.069919336	 -0.575397009
H	 0.380920939	 -1.300271349	 -1.441791049
H	 1.774405423	 -1.835885402	 -0.518276352
C	 1.568762319	 0.341962358	 -0.736006441
H	 1.931686131	 0.545256369	 -1.742642267
H	 2.397595596	 0.495483856	 -0.040789576
C	 0.387487613	 1.217401353	 -0.323046175
H	 -0.360955524	 1.206583609	 -1.118434958
H	 0.656742009	 2.256593742	 -0.137358205
C	 -0.155192914	 0.509013030	 0.924773915
H	 -1.213968392	 0.700115710	 1.091397721
H	 0.377757499	 0.869909676	 1.804654632
C	 0.143966387	 -0.995258167	 0.704203831
H	 -0.773106058	 -1.574783648	 0.613610887
H	 0.689406189	 -1.401124959	 1.554832540
