27
0  1  0  1  0  1  12  15 -2.13636 -2.05852 -2.25641 -2.33425 -2.29161 -2.31687  0.50382  0.50361  0.50216 -2.26535 -0.35080  1.02444 -0.13334 -2.80565
N	 -3.969286512	 -0.915275288	 0.030300723
H	 -3.719683392	 -1.895055926	 0.037353885
C	 -4.080498991	 -0.299054680	 1.285492691
O	 -3.883486729	 -0.935224391	 2.306283306
C	 -4.434632445	 1.107415169	 1.205156620
H	 -4.545073361	 1.666347716	 2.118229401
C	 -4.620743254	 1.683044212	 -0.000004544
H	 -4.884326322	 2.724245272	 -0.111354178
N	 -4.482072575	 0.980983477	 -1.168061795
H	 -4.611064841	 1.424905241	 -2.062036586
C	 -4.138674107	 -0.359606953	 -1.220691733
O	 -4.001733475	 -0.969966526	 -2.262485529
C	 0.047651631	 -1.069919336	 -0.646084449
H	 -1.013660099	 -1.300271349	 -0.540626689
H	 0.482869331	 -1.835885402	 -1.285662304
C	 0.191487991	 0.341962358	 -1.216435196
H	 -0.498822300	 0.545256369	 -2.034054350
H	 1.207980096	 0.495483856	 -1.586617437
C	 -0.041515281	 1.217401353	 0.013058841
H	 -1.104563741	 1.206583609	 0.263535219
H	 0.253922416	 2.256593742	 -0.127278321
C	 0.767788353	 0.509013030	 1.106944009
H	 0.382701063	 0.700115710	 2.107182373
H	 1.796262613	 0.869909676	 1.085335770
C	 0.726348708	 -0.995258167	 0.737579412
H	 0.189356694	 -1.574783648	 1.486490975
H	 1.735734680	 -1.401124959	 0.690529042
