27
0  1  0  1  0  1  12  15 -3.15982 -2.75622 -3.11563 -3.51923 -3.23943 -3.40376  4.28686  4.27478  4.26869 -3.20425 -3.44160  9.63751 -1.27248 -8.12768
N	 -0.408721016	 -1.009712413	 -0.030307475
H	 -0.658324136	 -1.989493051	 -0.037360637
C	 -0.297508537	 -0.393491805	 -1.285499443
O	 -0.494520799	 -1.029661516	 -2.306290058
C	 0.056624917	 1.012978044	 -1.205163372
H	 0.167065833	 1.571910591	 -2.118236153
C	 0.242735726	 1.588607087	 -0.000002208
H	 0.506318794	 2.629808147	 0.111347426
N	 0.104065047	 0.886546352	 1.168055043
H	 0.233057313	 1.330468116	 2.062029834
C	 -0.239333421	 -0.454044078	 1.220684981
O	 -0.376274053	 -1.064403651	 2.262478777
C	 -3.238085664	 -2.852162250	 0.705222649
H	 -2.281261310	 -2.565727045	 1.144549415
H	 -3.458461242	 -3.863857578	 1.041504469
C	 -4.298872900	 -1.834307494	 1.127242705
H	 -4.236826665	 -1.563741379	 2.180476808
H	 -5.298296339	 -2.234053529	 0.939583877
C	 -4.029453408	 -0.667888199	 0.178971271
H	 -3.118298738	 -0.154324059	 0.493576594
H	 -4.831395649	 0.069066244	 0.152787970
C	 -3.808570799	 -1.358337943	 -1.173012890
H	 -3.182190755	 -0.776030889	 -1.846701078
H	 -4.769731460	 -1.496536758	 -1.668536737
C	 -3.185295029	 -2.735472270	 -0.832413944
H	 -2.168500059	 -2.817603806	 -1.212494375
H	 -3.759774520	 -3.535802762	 -1.296360114
