27
0  1  0  1  0  1  12  15 -2.22937 -1.97088 -2.30607 -2.56456 -2.37863 -2.48731  3.33909  3.33779  3.33498 -2.31804 -2.29903  6.59824 -0.63187 -5.98538
N	 -3.338645268	 -0.915200353	 0.030307475
H	 -3.089042148	 -1.894980991	 0.037360637
C	 -3.449857747	 -0.298979745	 1.285499443
O	 -3.252845485	 -0.935149456	 2.306290058
C	 -3.803991201	 1.107490104	 1.205163372
H	 -3.914432117	 1.666422651	 2.118236153
C	 -3.990102010	 1.683119147	 0.000002208
H	 -4.253685078	 2.724320207	 -0.111347426
N	 -3.851431331	 0.981058412	 -1.168055043
H	 -3.980423597	 1.424980176	 -2.062029834
C	 -3.508032863	 -0.359532018	 -1.220684981
O	 -3.371092231	 -0.969891591	 -2.262478777
C	 0.119925765	 -0.961921045	 -0.705222649
H	 -0.836898589	 -0.675485840	 -1.144549415
H	 0.340301342	 -1.973616373	 -1.041504469
C	 1.180713000	 0.055933712	 -1.127242705
H	 1.118666765	 0.326499826	 -2.180476808
H	 2.180136440	 -0.343812324	 -0.939583877
C	 0.911293508	 1.222353006	 -0.178971271
H	 0.000138838	 1.735917146	 -0.493576594
H	 1.713235749	 1.959307449	 -0.152787970
C	 0.690410900	 0.531903262	 1.173012890
H	 0.064030856	 1.114210316	 1.846701078
H	 1.651571560	 0.393704447	 1.668536737
C	 0.067135129	 -0.845231065	 0.832413944
H	 -0.949659841	 -0.927362601	 1.212494375
H	 0.641614620	 -1.645561557	 1.296360114
