27
0  1  0  1  0  1  12  15 60.62092 63.66848 59.54882 56.50125 59.27449 57.61781 94.91115 94.89509 94.76850 57.17174 -67.16365 183.65230 -19.76078 -39.55613
N	 -1.336647129	 -1.482147856	 -0.030318515
H	 -1.586250249	 -2.461928494	 -0.037371677
C	 -1.225434650	 -0.865927248	 -1.285510483
O	 -1.422446912	 -1.502096959	 -2.306301098
C	 -0.871301196	 0.540542601	 -1.205174412
H	 -0.760860280	 1.099475148	 -2.118247193
C	 -0.685190387	 1.116171644	 -0.000013248
H	 -0.421607319	 2.157372704	 0.111336386
N	 -0.823861066	 0.414110909	 1.168044003
H	 -0.694868800	 0.858032673	 2.062018794
C	 -1.167259534	 -0.926479521	 1.220673941
O	 -1.304200166	 -1.536839094	 2.262467737
C	 -3.238085664	 -2.852162250	 0.705222649
H	 -2.281261310	 -2.565727045	 1.144549415
H	 -3.458461242	 -3.863857578	 1.041504469
C	 -4.298872900	 -1.834307494	 1.127242705
H	 -4.236826665	 -1.563741379	 2.180476808
H	 -5.298296339	 -2.234053529	 0.939583877
C	 -4.029453408	 -0.667888199	 0.178971271
H	 -3.118298738	 -0.154324059	 0.493576594
H	 -4.831395649	 0.069066244	 0.152787970
C	 -3.808570799	 -1.358337943	 -1.173012890
H	 -3.182190755	 -0.776030889	 -1.846701078
H	 -4.769731460	 -1.496536758	 -1.668536737
C	 -3.185295029	 -2.735472270	 -0.832413944
H	 -2.168500059	 -2.817603806	 -1.212494375
H	 -3.759774520	 -3.535802762	 -1.296360114
