27
0  1  0  1  0  1  12  15 -3.28910 -3.14669 -3.46734 -3.60975 -3.52634 -3.57484  0.76039  0.75720  0.75652 -3.46206 -0.71210  1.80661 -0.23582 -4.32075
N	 0.184103832	 -0.838392292	 0.446042029
H	 0.438771773	 -1.790455980	 0.671963556
C	 -1.190674955	 -0.567387443	 0.381679098
O	 -2.005272004	 -1.449968305	 0.589096270
C	 -1.488340466	 0.817452629	 0.059755128
H	 -2.517981679	 1.121947550	 -0.013909695
C	 -0.479738560	 1.689259409	 -0.142913552
H	 -0.650060982	 2.727939924	 -0.383968490
N	 0.834002776	 1.312288095	 -0.050973877
H	 1.578066796	 1.975176200	 -0.191844594
C	 1.242635714	 0.025758829	 0.258439586
O	 2.410678621	 -0.295419431	 0.354075092
C	 1.057600997	 -0.863988642	 4.427229255
H	 1.511453506	 -0.956044881	 3.439246701
H	 1.602103497	 -1.527968909	 5.096426927
C	 1.111914468	 0.601963360	 4.860165237
H	 2.070204459	 1.074862294	 4.649440948
H	 0.923799182	 0.683600902	 5.933388369
C	 -0.055437115	 1.214777837	 4.089394036
H	 0.218867161	 1.303559440	 3.035922414
H	 -0.339851539	 2.205918962	 4.441028050
C	 -1.172381607	 0.177205928	 4.260422350
H	 -1.897920886	 0.200819782	 3.449050438
H	 -1.716467237	 0.381903084	 5.182670966
C	 -0.449345262	 -1.189341903	 4.364079237
H	 -0.692009808	 -1.833498028	 3.520719563
H	 -0.764451489	 -1.716744317	 5.263165657
