27
0  1  0  1  0  1  12  15 54.19503 56.41283 52.07180 49.85400 51.85575 50.66792 82.44408 82.43684 82.36438 49.17808 -59.82257 162.59917 -21.24348 -32.35505
N	 -1.404718238	 -0.348003325	 -0.030318515
H	 -1.654321358	 -1.327783963	 -0.037371677
C	 -1.293505759	 0.268217283	 -1.285510483
O	 -1.490518021	 -0.367952428	 -2.306301098
C	 -0.939372305	 1.674687132	 -1.205174412
H	 -0.828931389	 2.233619679	 -2.118247193
C	 -0.753261496	 2.250316175	 -0.000013248
H	 -0.489678428	 3.291517235	 0.111336386
N	 -0.891932175	 1.548255440	 1.168044003
H	 -0.762939909	 1.992177204	 2.062018794
C	 -1.235330643	 0.207665010	 1.220673941
O	 -1.372271275	 -0.402694563	 2.262467737
C	 -4.534912533	 0.999007600	 0.705222649
H	 -3.808440192	 0.313591005	 1.144549415
H	 -5.521254177	 0.684010784	 1.041504469
C	 -4.183818075	 2.426603672	 1.127242705
H	 -3.918477829	 2.508153114	 2.180476808
H	 -5.029720016	 3.092256742	 0.939583877
C	 -3.038959588	 2.776489195	 0.178971271
H	 -2.138622662	 2.244188174	 0.493576594
H	 -2.801709440	 3.839468770	 0.152787970
C	 -3.526465302	 2.239974373	 -1.173012890
H	 -2.708982578	 1.988666869	 -1.846701078
H	 -4.126729317	 3.003264514	 -1.668536737
C	 -4.407460729	 1.011634559	 -0.832413944
H	 -3.970191240	 0.089998516	 -1.212494375
H	 -5.387807012	 1.108983146	 -1.296360114
