27
0  1  0  1  0  1  12  15 10.79884 11.79546 10.01464  9.01802  9.87283  9.36765 26.40219 26.40049 26.37444  9.99545 -18.13681 50.14593 -4.49458 -17.51908
N	 -2.690511530	 -0.915125566	 0.030314099
H	 -2.440908410	 -1.894906204	 0.037367261
C	 -2.801724009	 -0.298904958	 1.285506067
O	 -2.604711747	 -0.935074669	 2.306296682
C	 -3.155857463	 1.107564891	 1.205169996
H	 -3.266298379	 1.666497438	 2.118242777
C	 -3.341968272	 1.683193934	 0.000008832
H	 -3.605551340	 2.724394994	 -0.111340802
N	 -3.203297593	 0.981133199	 -1.168048419
H	 -3.332289859	 1.425054963	 -2.062023210
C	 -2.859899125	 -0.359457231	 -1.220678357
O	 -2.722958493	 -0.969816804	 -2.262472153
C	 1.149997408	 -0.891233605	 -0.705222649
H	 0.423525067	 -1.576650200	 -1.144549415
H	 2.136339051	 -1.206230421	 -1.041504469
C	 0.798902949	 0.536362467	 -1.127242705
H	 0.533562703	 0.617911909	 -2.180476808
H	 1.644804891	 1.202015537	 -0.939583877
C	 -0.345955538	 0.886247990	 -0.178971271
H	 -1.246292464	 0.353946969	 -0.493576594
H	 -0.583205686	 1.949227565	 -0.152787970
C	 0.141550177	 0.349733168	 1.173012890
H	 -0.675932547	 0.098425664	 1.846701078
H	 0.741814191	 1.113023309	 1.668536737
C	 1.022545603	 -0.878606646	 0.832413944
H	 0.585276114	 -1.800242689	 1.212494375
H	 2.002891886	 -0.781258059	 1.296360114
