27
0  1  0  1  0  1  12  15 -3.05875 -2.87535 -3.03223 -3.21563 -3.11101 -3.17184  1.04708  1.03851  1.03770 -3.14604 -0.98215  2.65209 -0.41232 -4.40366
N	 -0.037550572	 -0.820738237	 -0.030303059
H	 -0.287153692	 -1.800518875	 -0.037356221
C	 0.073661907	 -0.204517629	 -1.285495027
O	 -0.123350355	 -0.840687340	 -2.306285642
C	 0.427795361	 1.201952220	 -1.205158956
H	 0.538236277	 1.760884767	 -2.118231737
C	 0.613906170	 1.777581263	 0.000002208
H	 0.877489238	 2.818782323	 0.111351842
N	 0.475235491	 1.075520528	 1.168059459
H	 0.604227757	 1.519442292	 2.062034250
C	 0.131837023	 -0.265069902	 1.220689397
O	 -0.005103609	 -0.875429475	 2.262483193
C	 -3.238085664	 -2.852162250	 0.705222649
H	 -2.281261310	 -2.565727045	 1.144549415
H	 -3.458461242	 -3.863857578	 1.041504469
C	 -4.298872900	 -1.834307494	 1.127242705
H	 -4.236826665	 -1.563741379	 2.180476808
H	 -5.298296339	 -2.234053529	 0.939583877
C	 -4.029453408	 -0.667888199	 0.178971271
H	 -3.118298738	 -0.154324059	 0.493576594
H	 -4.831395649	 0.069066244	 0.152787970
C	 -3.808570799	 -1.358337943	 -1.173012890
H	 -3.182190755	 -0.776030889	 -1.846701078
H	 -4.769731460	 -1.496536758	 -1.668536737
C	 -3.185295029	 -2.735472270	 -0.832413944
H	 -2.168500059	 -2.817603806	 -1.212494375
H	 -3.759774520	 -3.535802762	 -1.296360114
