27
0  1  0  1  0  1  12  15 -2.63258 -2.43988 -2.72595 -2.91864 -2.78624 -2.86389  1.46195  1.46184  1.45922 -2.72013 -1.45114  3.76184 -0.60038 -4.43045
N	 -0.223135794	 -0.915225325	 -0.030305267
H	 -0.472738914	 -1.895005963	 -0.037358429
C	 -0.111923315	 -0.299004717	 -1.285497235
O	 -0.308935577	 -0.935174428	 -2.306287850
C	 0.242210139	 1.107465132	 -1.205161164
H	 0.352651055	 1.666397679	 -2.118233945
C	 0.428320948	 1.683094175	 0.000000000
H	 0.691904016	 2.724295235	 0.111349634
N	 0.289650269	 0.981033440	 1.168057251
H	 0.418642535	 1.424955204	 2.062032042
C	 -0.053748199	 -0.359556990	 1.220687189
O	 -0.190688831	 -0.969916563	 2.262480985
C	 -4.566858148	 -1.069919336	 -1.314844196
H	 -3.944873183	 -1.300271349	 -0.448450156
H	 -5.338357668	 -1.835885402	 -1.371964853
C	 -5.132714565	 0.341962358	 -1.154234764
H	 -5.495638375	 0.545256369	 -0.147598938
H	 -5.961547841	 0.495483856	 -1.849451629
C	 -3.951439858	 1.217401353	 -1.567195030
H	 -3.202996721	 1.206583609	 -0.771806247
H	 -4.220694254	 2.256593742	 -1.752883000
C	 -3.408759330	 0.509013030	 -2.815015120
H	 -2.349983852	 0.700115710	 -2.981638926
H	 -3.941709744	 0.869909676	 -3.694895837
C	 -3.707918632	 -0.995258167	 -2.594445036
H	 -2.790846186	 -1.574783648	 -2.503852092
H	 -4.253358433	 -1.401124959	 -3.445073745
