27
0  1  0  1  0  1  12  15 -2.30710 -2.19560 -2.34554 -2.45705 -2.38925 -2.42920  0.54787  0.54662  0.54484 -2.43417 -0.80740  1.80831 -0.33188 -3.10321
N	 -0.022958971	 -0.915250306	 -0.124815055
H	 -0.272562091	 -1.895030944	 -0.131868217
C	 0.088253508	 -0.299029698	 -1.380007023
O	 -0.108758754	 -0.935199409	 -2.400797638
C	 0.442386962	 1.107440151	 -1.299670952
H	 0.552827878	 1.666372698	 -2.212743733
C	 0.628497771	 1.683069194	 -0.094509788
H	 0.892080839	 2.724270254	 0.016839846
N	 0.489827092	 0.981008459	 1.073547463
H	 0.618819358	 1.424930223	 1.967522254
C	 0.146428624	 -0.359581971	 1.126177401
O	 0.009487992	 -0.969941544	 2.167971197
C	 -3.712271532	 -1.069919336	 2.536325654
H	 -2.650959801	 -1.300271349	 2.430867894
H	 -4.147489232	 -1.835885402	 3.175903509
C	 -3.856107893	 0.341962358	 3.106676402
H	 -3.165797600	 0.545256369	 3.924295555
H	 -4.872599997	 0.495483856	 3.476858642
C	 -3.623104620	 1.217401353	 1.877182364
H	 -2.560056160	 1.206583609	 1.626705986
H	 -3.918542317	 2.256593742	 2.017519526
C	 -4.432408253	 0.509013030	 0.783297196
H	 -4.047320963	 0.700115710	 -0.216941168
H	 -5.460882514	 0.869909676	 0.804905435
C	 -4.390968609	 -0.995258167	 1.152661793
H	 -3.853976594	 -1.574783648	 0.403750230
H	 -5.400354580	 -1.401124959	 1.199712163
