27
0  1  0  1  0  1  12  15 -0.99649 -0.61472 -1.36896 -1.75073 -1.46184 -1.63227  6.56245  6.55467  6.54658 -1.15371 -4.77927 13.12354 -1.41953 -8.07845
N	 -0.616996609	 -0.726151325	 -0.030309683
H	 -0.866599729	 -1.705931963	 -0.037362845
C	 -0.505784130	 -0.109930717	 -1.285501651
O	 -0.702796392	 -0.746100428	 -2.306292266
C	 -0.151650676	 1.296539132	 -1.205165580
H	 -0.041209760	 1.855471679	 -2.118238361
C	 0.034460133	 1.872168175	 -0.000004416
H	 0.298043201	 2.913369235	 0.111345218
N	 -0.104210546	 1.170107440	 1.168052835
H	 0.024781720	 1.614029204	 2.062027626
C	 -0.447609014	 -0.170482990	 1.220682773
O	 -0.584549646	 -0.780842563	 2.262476569
C	 -4.534912533	 0.999007600	 0.705222649
H	 -3.808440192	 0.313591005	 1.144549415
H	 -5.521254177	 0.684010784	 1.041504469
C	 -4.183818075	 2.426603672	 1.127242705
H	 -3.918477829	 2.508153114	 2.180476808
H	 -5.029720016	 3.092256742	 0.939583877
C	 -3.038959588	 2.776489195	 0.178971271
H	 -2.138622662	 2.244188174	 0.493576594
H	 -2.801709440	 3.839468770	 0.152787970
C	 -3.526465302	 2.239974373	 -1.173012890
H	 -2.708982578	 1.988666869	 -1.846701078
H	 -4.126729317	 3.003264514	 -1.668536737
C	 -4.407460729	 1.011634559	 -0.832413944
H	 -3.970191240	 0.089998516	 -1.212494375
H	 -5.387807012	 1.108983146	 -1.296360114
