27
0  1  0  1  0  1  12  15 -1.97424 -1.89525 -2.04296 -2.12195 -2.07717 -2.10304  0.17032  0.16918  0.16922 -2.07461 -0.40039  0.87074 -0.21992 -2.32504
N	 0.192154968	 -0.915275288	 0.158723334
H	 -0.057448152	 -1.895055926	 0.151670172
C	 0.303367447	 -0.299054680	 -1.096468634
O	 0.106355185	 -0.935224391	 -2.117259249
C	 0.657500901	 1.107415169	 -1.016132563
H	 0.767941817	 1.666347716	 -1.929205344
C	 0.843611710	 1.683044212	 0.189028601
H	 1.107194778	 2.724245272	 0.300378235
N	 0.704941031	 0.980983477	 1.357085852
H	 0.833933297	 1.424905241	 2.251060643
C	 0.361542563	 -0.359606953	 1.409715790
O	 0.224601931	 -0.969966526	 2.451509586
C	 -4.566858148	 -1.069919336	 -1.314844196
H	 -3.944873183	 -1.300271349	 -0.448450156
H	 -5.338357668	 -1.835885402	 -1.371964853
C	 -5.132714565	 0.341962358	 -1.154234764
H	 -5.495638375	 0.545256369	 -0.147598938
H	 -5.961547841	 0.495483856	 -1.849451629
C	 -3.951439858	 1.217401353	 -1.567195030
H	 -3.202996721	 1.206583609	 -0.771806247
H	 -4.220694254	 2.256593742	 -1.752883000
C	 -3.408759330	 0.509013030	 -2.815015120
H	 -2.349983852	 0.700115710	 -2.981638926
H	 -3.941709744	 0.869909676	 -3.694895837
C	 -3.707918632	 -0.995258167	 -2.594445036
H	 -2.790846186	 -1.574783648	 -2.503852092
H	 -4.253358433	 -1.401124959	 -3.445073745
