27
0  1  0  1  0  1  12  15 10.35046 11.34828 10.00707  9.00925  9.85828  9.35751 24.71654 24.69984 24.67633 10.45612 -20.19328 52.75389 -6.05169 -16.05279
N	 -1.023843085	 -0.915125399	 0.347733885
H	 -1.273446205	 -1.894906037	 0.340680723
C	 -0.912630606	 -0.298904791	 -0.907458083
O	 -1.109642868	 -0.935074502	 -1.928248698
C	 -0.558497152	 1.107565058	 -0.827122012
H	 -0.448056236	 1.666497605	 -1.740194793
C	 -0.372386343	 1.683194101	 0.378039152
H	 -0.108803275	 2.724395161	 0.489388786
N	 -0.511057022	 0.981133366	 1.546096403
H	 -0.382064756	 1.425055130	 2.440071194
C	 -0.854455490	 -0.359457064	 1.598726341
O	 -0.991396122	 -0.969816637	 2.640520137
C	 -3.712271532	 -1.069919336	 2.536325654
H	 -2.650959801	 -1.300271349	 2.430867894
H	 -4.147489232	 -1.835885402	 3.175903509
C	 -3.856107893	 0.341962358	 3.106676402
H	 -3.165797600	 0.545256369	 3.924295555
H	 -4.872599997	 0.495483856	 3.476858642
C	 -3.623104620	 1.217401353	 1.877182364
H	 -2.560056160	 1.206583609	 1.626705986
H	 -3.918542317	 2.256593742	 2.017519526
C	 -4.432408253	 0.509013030	 0.783297196
H	 -4.047320963	 0.700115710	 -0.216941168
H	 -5.460882514	 0.869909676	 0.804905435
C	 -4.390968609	 -0.995258167	 1.152661793
H	 -3.853976594	 -1.574783648	 0.403750230
H	 -5.400354580	 -1.401124959	 1.199712163
