27
0  1  0  1  0  1  12  15 -2.10890 -2.03810 -2.22872 -2.29952 -2.25933 -2.28282  0.31595  0.31442  0.31381 -2.23545 -0.44445  0.96712 -0.13911 -2.61900
N	 -3.990764159	 -0.915275204	 0.030300851
H	 -3.741161039	 -1.895055842	 0.037354013
C	 -4.101976638	 -0.299054596	 1.285492819
O	 -3.904964376	 -0.935224307	 2.306283434
C	 -4.456110092	 1.107415253	 1.205156748
H	 -4.566551008	 1.666347800	 2.118229529
C	 -4.642220901	 1.683044296	 -0.000004416
H	 -4.905803969	 2.724245356	 -0.111354050
N	 -4.503550222	 0.980983561	 -1.168061667
H	 -4.632542488	 1.424905325	 -2.062036458
C	 -4.160151754	 -0.359606869	 -1.220691605
O	 -4.023211122	 -0.969966442	 -2.262485401
C	 1.149997408	 -0.891233605	 -0.705222649
H	 0.423525067	 -1.576650200	 -1.144549415
H	 2.136339051	 -1.206230421	 -1.041504469
C	 0.798902949	 0.536362467	 -1.127242705
H	 0.533562703	 0.617911909	 -2.180476808
H	 1.644804891	 1.202015537	 -0.939583877
C	 -0.345955538	 0.886247990	 -0.178971271
H	 -1.246292464	 0.353946969	 -0.493576594
H	 -0.583205686	 1.949227565	 -0.152787970
C	 0.141550177	 0.349733168	 1.173012890
H	 -0.675932547	 0.098425664	 1.846701078
H	 0.741814191	 1.113023309	 1.668536737
C	 1.022545603	 -0.878606646	 0.832413944
H	 0.585276114	 -1.800242689	 1.212494375
H	 2.002891886	 -0.781258059	 1.296360114
