27
0  1  0  1  0  1  12  15 -2.17330 -1.92656 -2.44125 -2.68799 -2.51331 -2.61627  3.30608  3.30138  3.29670 -2.32724 -2.48074  6.74418 -0.75835 -5.83233
N	 -0.420066201	 -0.820688325	 -0.030307475
H	 -0.669669321	 -1.800468963	 -0.037360637
C	 -0.308853722	 -0.204467717	 -1.285499443
O	 -0.505865984	 -0.840637428	 -2.306290058
C	 0.045279732	 1.202002132	 -1.205163372
H	 0.155720648	 1.760934679	 -2.118236153
C	 0.231390541	 1.777631175	 -0.000002208
H	 0.494973609	 2.818832235	 0.111347426
N	 0.092719862	 1.075570440	 1.168055043
H	 0.221712128	 1.519492204	 2.062029834
C	 -0.250678606	 -0.265019990	 1.220684981
O	 -0.387619238	 -0.875379563	 2.262478777
C	 -4.534912533	 0.999007600	 0.705222649
H	 -3.808440192	 0.313591005	 1.144549415
H	 -5.521254177	 0.684010784	 1.041504469
C	 -4.183818075	 2.426603672	 1.127242705
H	 -3.918477829	 2.508153114	 2.180476808
H	 -5.029720016	 3.092256742	 0.939583877
C	 -3.038959588	 2.776489195	 0.178971271
H	 -2.138622662	 2.244188174	 0.493576594
H	 -2.801709440	 3.839468770	 0.152787970
C	 -3.526465302	 2.239974373	 -1.173012890
H	 -2.708982578	 1.988666869	 -1.846701078
H	 -4.126729317	 3.003264514	 -1.668536737
C	 -4.407460729	 1.011634559	 -0.832413944
H	 -3.970191240	 0.089998516	 -1.212494375
H	 -5.387807012	 1.108983146	 -1.296360114
