27
0  1  0  1  0  1  12  15 -1.20082 -0.77352 -1.27669 -1.70398 -1.37511 -1.57304  6.24087  6.23127  6.21276 -1.21033 -5.62446 14.36732 -1.78900 -8.16418
N	 -0.623489439	 -0.915175362	 0.158714309
H	 -0.873092559	 -1.894956000	 0.151661147
C	 -0.512276960	 -0.298954754	 -1.096477659
O	 -0.709289222	 -0.935124465	 -2.117268274
C	 -0.158143506	 1.107515095	 -1.016141588
H	 -0.047702590	 1.666447642	 -1.929214369
C	 0.027967303	 1.683144138	 0.189019576
H	 0.291550371	 2.724345198	 0.300369210
N	 -0.110703376	 0.981083403	 1.357076827
H	 0.018288890	 1.425005167	 2.251051618
C	 -0.454101844	 -0.359507027	 1.409706765
O	 -0.591042476	 -0.969866600	 2.451500561
C	 -3.712271532	 -1.069919336	 2.536325654
H	 -2.650959801	 -1.300271349	 2.430867894
H	 -4.147489232	 -1.835885402	 3.175903509
C	 -3.856107893	 0.341962358	 3.106676402
H	 -3.165797600	 0.545256369	 3.924295555
H	 -4.872599997	 0.495483856	 3.476858642
C	 -3.623104620	 1.217401353	 1.877182364
H	 -2.560056160	 1.206583609	 1.626705986
H	 -3.918542317	 2.256593742	 2.017519526
C	 -4.432408253	 0.509013030	 0.783297196
H	 -4.047320963	 0.700115710	 -0.216941168
H	 -5.460882514	 0.869909676	 0.804905435
C	 -4.390968609	 -0.995258167	 1.152661793
H	 -3.853976594	 -1.574783648	 0.403750230
H	 -5.400354580	 -1.401124959	 1.199712163
