27
0  1  0  1  0  1  12  15 -2.20432 -1.94825 -2.42328 -2.67935 -2.49992 -2.60470  3.82957  3.82522  3.82273 -2.35344 -2.18325  7.10781 -0.83376 -6.44424
N	 -3.338874727	 -0.915200344	 0.030307507
H	 -3.089271607	 -1.894980982	 0.037360669
C	 -3.450087206	 -0.298979736	 1.285499475
O	 -3.253074944	 -0.935149447	 2.306290090
C	 -3.804220660	 1.107490113	 1.205163404
H	 -3.914661576	 1.666422660	 2.118236185
C	 -3.990331469	 1.683119156	 0.000002240
H	 -4.253914537	 2.724320216	 -0.111347394
N	 -3.851660790	 0.981058421	 -1.168055011
H	 -3.980653056	 1.424980185	 -2.062029802
C	 -3.508262322	 -0.359532009	 -1.220684949
O	 -3.371321690	 -0.969891582	 -2.262478745
C	 1.002905903	 -1.069919336	 -0.575397009
H	 0.380920939	 -1.300271349	 -1.441791049
H	 1.774405423	 -1.835885402	 -0.518276352
C	 1.568762319	 0.341962358	 -0.736006441
H	 1.931686131	 0.545256369	 -1.742642267
H	 2.397595596	 0.495483856	 -0.040789576
C	 0.387487613	 1.217401353	 -0.323046175
H	 -0.360955524	 1.206583609	 -1.118434958
H	 0.656742009	 2.256593742	 -0.137358205
C	 -0.155192914	 0.509013030	 0.924773915
H	 -1.213968392	 0.700115710	 1.091397721
H	 0.377757499	 0.869909676	 1.804654632
C	 0.143966387	 -0.995258167	 0.704203831
H	 -0.773106058	 -1.574783648	 0.613610887
H	 0.689406189	 -1.401124959	 1.554832540
