27
0  1  0  1  0  1  12  15 -0.89874 -0.49055 -1.01015 -1.41834 -1.10145 -1.28790  6.82989  6.82880  6.82110 -0.93691 -4.64458 13.28797 -1.22088 -8.35942
N	 -3.119943920	 -0.915175381	 0.030309683
H	 -2.870340800	 -1.894956019	 0.037362845
C	 -3.231156399	 -0.298954773	 1.285501651
O	 -3.034144137	 -0.935124484	 2.306292266
C	 -3.585289853	 1.107515076	 1.205165580
H	 -3.695730769	 1.666447623	 2.118238361
C	 -3.771400662	 1.683144119	 0.000004416
H	 -4.034983730	 2.724345179	 -0.111345218
N	 -3.632729983	 0.981083384	 -1.168052835
H	 -3.761722249	 1.425005148	 -2.062027626
C	 -3.289331515	 -0.359507046	 -1.220682773
O	 -3.152390883	 -0.969866619	 -2.262476569
C	 0.119925765	 -0.961921045	 -0.705222649
H	 -0.836898589	 -0.675485840	 -1.144549415
H	 0.340301342	 -1.973616373	 -1.041504469
C	 1.180713000	 0.055933712	 -1.127242705
H	 1.118666765	 0.326499826	 -2.180476808
H	 2.180136440	 -0.343812324	 -0.939583877
C	 0.911293508	 1.222353006	 -0.178971271
H	 0.000138838	 1.735917146	 -0.493576594
H	 1.713235749	 1.959307449	 -0.152787970
C	 0.690410900	 0.531903262	 1.173012890
H	 0.064030856	 1.114210316	 1.846701078
H	 1.651571560	 0.393704447	 1.668536737
C	 0.067135129	 -0.845231065	 0.832413944
H	 -0.949659841	 -0.927362601	 1.212494375
H	 0.641614620	 -1.645561557	 1.296360114
