27
0  1  0  1  0  1  12  15 -2.70896 -2.53764 -2.89896 -3.07029 -2.95552 -3.02287  1.74048  1.73722  1.73487 -2.90041 -1.49578  3.83318 -0.40293 -4.83489
N	 -3.557346616	 -0.915225325	 0.030305267
H	 -3.307743496	 -1.895005963	 0.037358429
C	 -3.668559095	 -0.299004717	 1.285497235
O	 -3.471546833	 -0.935174428	 2.306287850
C	 -4.022692549	 1.107465132	 1.205161164
H	 -4.133133465	 1.666397679	 2.118233945
C	 -4.208803358	 1.683094175	 -0.000000000
H	 -4.472386426	 2.724295235	 -0.111349634
N	 -4.070132679	 0.981033440	 -1.168057251
H	 -4.199124945	 1.424955204	 -2.062032042
C	 -3.726734211	 -0.359556990	 -1.220687189
O	 -3.589793579	 -0.969916563	 -2.262480985
C	 1.149997408	 -0.891233605	 -0.705222649
H	 0.423525067	 -1.576650200	 -1.144549415
H	 2.136339051	 -1.206230421	 -1.041504469
C	 0.798902949	 0.536362467	 -1.127242705
H	 0.533562703	 0.617911909	 -2.180476808
H	 1.644804891	 1.202015537	 -0.939583877
C	 -0.345955538	 0.886247990	 -0.178971271
H	 -1.246292464	 0.353946969	 -0.493576594
H	 -0.583205686	 1.949227565	 -0.152787970
C	 0.141550177	 0.349733168	 1.173012890
H	 -0.675932547	 0.098425664	 1.846701078
H	 0.741814191	 1.113023309	 1.668536737
C	 1.022545603	 -0.878606646	 0.832413944
H	 0.585276114	 -1.800242689	 1.212494375
H	 2.002891886	 -0.781258059	 1.296360114
