27
0  1  0  1  0  1  12  15 61.09829 64.21986 58.99425 55.87268 58.68561 57.02361 99.33572 99.32114 99.23634 58.06892 -70.72110 187.30790 -15.71411 -42.80377
N	 0.230606872	 -0.863580132	 1.957259582
H	 0.485274813	 -1.815643820	 2.183181109
C	 -1.144171915	 -0.592575283	 1.892896651
O	 -1.958768964	 -1.475156145	 2.100313823
C	 -1.441837426	 0.792264789	 1.570972681
H	 -2.471478639	 1.096759710	 1.497307858
C	 -0.433235520	 1.664071569	 1.368304001
H	 -0.603557942	 2.702752084	 1.127249063
N	 0.880505816	 1.287100255	 1.460243676
H	 1.624569836	 1.949988360	 1.319372959
C	 1.289138754	 0.000570989	 1.769657139
O	 2.457181661	 -0.320607271	 1.865292645
C	 1.057600997	 -0.863988642	 4.427229255
H	 1.511453506	 -0.956044881	 3.439246701
H	 1.602103497	 -1.527968909	 5.096426927
C	 1.111914468	 0.601963360	 4.860165237
H	 2.070204459	 1.074862294	 4.649440948
H	 0.923799182	 0.683600902	 5.933388369
C	 -0.055437115	 1.214777837	 4.089394036
H	 0.218867161	 1.303559440	 3.035922414
H	 -0.339851539	 2.205918962	 4.441028050
C	 -1.172381607	 0.177205928	 4.260422350
H	 -1.897920886	 0.200819782	 3.449050438
H	 -1.716467237	 0.381903084	 5.182670966
C	 -0.449345262	 -1.189341903	 4.364079237
H	 -0.692009808	 -1.833498028	 3.520719563
H	 -0.764451489	 -1.716744317	 5.263165657
