29
0  1  0  1  0  1  12  17 -2.00618 -1.93203 -1.99851 -2.07266 -2.03164 -2.05535 -0.07803 -0.08100 -0.08097 -2.09024 -0.65266  0.87094 -0.17458 -2.13395
N	 0.212607832	 -0.914242216	 -0.248603260
H	 -0.094587593	 -1.877339112	 -0.255819015
C	 0.353279988	 -0.305218925	 -1.503287165
O	 0.135083209	 -0.934489553	 -2.524580084
C	 0.762618052	 1.086223366	 -1.424620490
H	 0.914372901	 1.634040771	 -2.338493999
C	 0.936482618	 1.664608685	 -0.218715613
H	 1.233887139	 2.696757252	 -0.107730039
N	 0.741878469	 0.977443947	 0.949201192
H	 0.847101074	 1.427839842	 1.842954383
C	 0.346442422	 -0.348593151	 1.001310179
O	 0.143822753	 -0.939926330	 2.043586219
C	 -4.422487220	 -0.000313171	 2.186771554
C	 -5.594730663	 0.601960247	 1.416958585
H	 -6.463856441	 -0.056106250	 1.456581068
H	 -5.881852074	 1.566650546	 1.838169182
H	 -5.333232328	 0.752689829	 0.368580482
C	 -4.817534646	 -0.200739300	 3.647387251
H	 -3.992841482	 -0.632125419	 4.216480666
H	 -5.088657665	 0.749084638	 4.110715207
H	 -5.672843506	 -0.872884786	 3.728852758
C	 -3.226436720	 0.946057418	 2.112865484
H	 -2.372820804	 0.532492966	 2.653109952
H	 -3.471729280	 1.913144393	 2.555554650
H	 -2.930910313	 1.116812231	 1.075818218
C	 -4.049407847	 -1.346970253	 1.571322228
H	 -3.785838070	 -1.236707397	 0.518097292
H	 -3.200731179	 -1.788468981	 2.097314695
H	 -4.885780286	 -2.044521470	 1.636016384
