29
0  1  0  1  0  1  12  17 -2.65661 -2.37298 -2.60535 -2.88897 -2.68080 -2.80369  2.69048  2.68869  2.68266 -2.73290 -3.64702  7.78643 -0.86118 -6.01113
N	 -0.450720524	 -0.914168810	 0.079470159
H	 -0.757915949	 -1.877265706	 0.072254404
C	 -0.310048368	 -0.305145519	 -1.175213746
O	 -0.528245147	 -0.934416147	 -2.196506665
C	 0.099289696	 1.086296772	 -1.096547071
H	 0.251044545	 1.634114177	 -2.010420580
C	 0.273154262	 1.664682091	 0.109357806
H	 0.570558783	 2.696830658	 0.220343380
N	 0.078550113	 0.977517353	 1.277274611
H	 0.183772718	 1.427913248	 2.171027802
C	 -0.316885934	 -0.348519745	 1.329383598
O	 -0.519505603	 -0.939852924	 2.371659638
C	 -4.422487220	 -0.000313171	 2.186771554
C	 -5.594730663	 0.601960247	 1.416958585
H	 -6.463856441	 -0.056106250	 1.456581068
H	 -5.881852074	 1.566650546	 1.838169182
H	 -5.333232328	 0.752689829	 0.368580482
C	 -4.817534646	 -0.200739300	 3.647387251
H	 -3.992841482	 -0.632125419	 4.216480666
H	 -5.088657665	 0.749084638	 4.110715207
H	 -5.672843506	 -0.872884786	 3.728852758
C	 -3.226436720	 0.946057418	 2.112865484
H	 -2.372820804	 0.532492966	 2.653109952
H	 -3.471729280	 1.913144393	 2.555554650
H	 -2.930910313	 1.116812231	 1.075818218
C	 -4.049407847	 -1.346970253	 1.571322228
H	 -3.785838070	 -1.236707397	 0.518097292
H	 -3.200731179	 -1.788468981	 2.097314695
H	 -4.885780286	 -2.044521470	 1.636016384
