29
0  1  0  1  0  1  12  17 -0.44816 -0.10080 -0.52026 -0.86762 -0.60037 -0.75805  6.08961  6.08484  6.07730 -0.69560 -4.89059 12.39186 -0.94649 -7.25038
N	 -3.648856523	 -0.914144418	 0.029892811
H	 -3.341661098	 -1.877241314	 0.037108566
C	 -3.789528679	 -0.305121127	 1.284576716
O	 -3.571331900	 -0.934391755	 2.305869635
C	 -4.198866743	 1.086321164	 1.205910041
H	 -4.350621592	 1.634138569	 2.119783550
C	 -4.372731309	 1.664706483	 0.000005164
H	 -4.670135830	 2.696855050	 -0.110980410
N	 -4.178127160	 0.977541745	 -1.167911641
H	 -4.283349765	 1.427937640	 -2.061664832
C	 -3.782691113	 -0.348495353	 -1.220020628
O	 -3.580071444	 -0.939828532	 -2.262296668
C	 0.585305817	 -0.000315929	 0.000452937
C	 0.830012897	 0.836411210	 1.253252245
H	 1.828047517	 0.652757028	 1.653501057
H	 0.745398344	 1.901487383	 1.032033873
H	 0.104563319	 0.591620231	 2.030425148
C	 1.614269600	 0.362324430	 -1.066953649
H	 1.457867464	 -0.226096170	 -1.972149586
H	 1.543326785	 1.418127789	 -1.332645920
H	 2.627099587	 0.170955341	 -0.709850418
C	 -0.816919620	 0.282883467	 -0.533567779
H	 -1.016416614	 -0.309839272	 -1.428241171
H	 -0.924803656	 1.337292440	 -0.794301563
H	 -1.572996470	 0.043532968	 0.216778295
C	 0.712327452	 -1.481965611	 0.346908001
H	 0.003458917	 -1.763910471	 1.127242663
H	 0.524330735	 -2.100304385	 -0.532953172
H	 1.716395781	 -1.707729257	 0.709067438
