29
0  1  0  1  0  1  12  17 -2.85539 -2.70985 -2.77055 -2.91609 -2.83056 -2.88049  0.21654  0.20915  0.20801 -2.91592 -1.29502  2.07346 -0.32300 -3.37136
N	 -0.017473464	 -0.804857360	 -0.029885065
H	 -0.324668889	 -1.767954256	 -0.037100820
C	 0.123198692	 -0.195834069	 -1.284568970
O	 -0.094998087	 -0.825104697	 -2.305861889
C	 0.532536756	 1.195608222	 -1.205902295
H	 0.684291605	 1.743425627	 -2.119775804
C	 0.706401322	 1.773993541	 0.000002582
H	 1.003805843	 2.806142108	 0.110988156
N	 0.511797173	 1.086828803	 1.167919387
H	 0.617019778	 1.537224698	 2.061672578
C	 0.116361126	 -0.239208295	 1.220028374
O	 -0.086258543	 -0.830541474	 2.262304414
C	 -4.242667339	 -2.187435023	 -0.000452937
C	 -5.089647837	 -1.980994001	 -1.253252245
H	 -5.429615960	 -2.937144427	 -1.653501057
H	 -5.969723583	 -1.375177562	 -1.032033873
H	 -4.514927842	 -1.475131727	 -2.030425148
C	 -5.071204994	 -2.897223619	 1.066953649
H	 -4.483416738	 -3.055985696	 1.972149586
H	 -5.950086117	 -2.307883660	 1.332645920
H	 -5.411889495	 -3.870044662	 0.709850418
C	 -3.786812492	 -0.831472475	 0.533567779
H	 -3.173751045	 -0.955064379	 1.428241171
H	 -4.646015431	 -0.210837673	 0.794301563
H	 -3.201490454	 -0.296365965	 -0.216778295
C	 -3.023031893	 -3.038263827	 -0.346908001
H	 -2.424426213	 -2.565338097	 -1.127242663
H	 -2.393536448	 -3.184623281	 0.532953172
H	 -3.329549005	 -4.020694330	 -0.709067438
