29
0  1  0  1  0  1  12  17 67.64194 70.22265 66.42486 63.84416 66.16566 64.78353 99.85953 99.85117 99.75633 62.06637 -62.26947 174.38450 -13.96211 -36.08656
N	 -2.765571525	 -0.914046467	 0.029903366
H	 -2.458376100	 -1.877143363	 0.037119121
C	 -2.906243681	 -0.305023176	 1.284587271
O	 -2.688046902	 -0.934293804	 2.305880190
C	 -3.315581745	 1.086419115	 1.205920596
H	 -3.467336594	 1.634236520	 2.119794105
C	 -3.489446311	 1.664804434	 0.000015719
H	 -3.786850832	 2.696953001	 -0.110969855
N	 -3.294842162	 0.977639696	 -1.167901086
H	 -3.400064767	 1.428035591	 -2.061654277
C	 -2.899406115	 -0.348397402	 -1.220010073
O	 -2.696786446	 -0.939730581	 -2.262286113
C	 0.223329299	 -0.000313171	 0.000436969
C	 1.395572742	 0.601960247	 0.770249938
H	 2.264698519	 -0.056106250	 0.730627455
H	 1.682694152	 1.566650546	 0.349039341
H	 1.134074407	 0.752689829	 1.818628041
C	 0.618376724	 -0.200739300	 -1.460178728
H	 -0.206316440	 -0.632125419	 -2.029272143
H	 0.889499743	 0.749084638	 -1.923506684
H	 1.473685584	 -0.872884786	 -1.541644235
C	 -0.972721201	 0.946057418	 0.074343039
H	 -1.826337118	 0.532492966	 -0.465901429
H	 -0.727428642	 1.913144393	 -0.368346127
H	 -1.268247608	 1.116812231	 1.111390305
C	 -0.149750075	 -1.346970253	 0.615886295
H	 -0.413319851	 -1.236707397	 1.669111231
H	 -0.998426743	 -1.788468981	 0.089893828
H	 0.686622364	 -2.044521470	 0.551192139
