29
0  1  0  1  0  1  12  17 -2.47571 -2.31213 -2.49692 -2.66050 -2.55243 -2.61673  0.92085  0.91833  0.91400 -2.59471 -1.67128  3.48846 -0.61054 -3.80135
N	 -0.229611072	 -0.914193279	 -0.029887647
H	 -0.536806497	 -1.877290175	 -0.037103402
C	 -0.088938916	 -0.305169988	 -1.284571552
O	 -0.307135695	 -0.934440616	 -2.305864471
C	 0.320399148	 1.086272303	 -1.205904877
H	 0.472153997	 1.634089708	 -2.119778386
C	 0.494263714	 1.664657622	 0.000000000
H	 0.791668235	 2.696806189	 0.110985574
N	 0.299659565	 0.977492884	 1.167916805
H	 0.404882170	 1.427888779	 2.061669996
C	 -0.095776482	 -0.348544214	 1.220025792
O	 -0.298396151	 -0.939877393	 2.262301832
C	 -4.514930429	 -0.000313171	 -2.187556063
C	 -4.434374564	 0.601960247	 -3.587655149
H	 -4.903251530	 -0.056106250	 -4.320528910
H	 -4.942714347	 1.566650546	 -3.625704286
H	 -3.395703326	 0.752689829	 -3.885379999
C	 -5.977384441	 -0.200739300	 -1.799369321
H	 -6.057887214	 -0.632125419	 -0.800617383
H	 -6.514199731	 0.749084638	 -1.802504765
H	 -6.475590070	 -0.872884786	 -2.499355768
C	 -3.852900645	 0.946057418	 -1.188698981
H	 -3.893958121	 0.532492966	 -0.179323678
H	 -4.358926989	 1.913144393	 -1.179783986
H	 -2.807028164	 1.116812231	 -1.451289238
C	 -3.795395992	 -1.346970253	 -2.172184511
H	 -2.751491553	 -1.236707397	 -2.470538857
H	 -3.826580497	 -1.788468981	 -1.174212724
H	 -4.269608994	 -2.044521470	 -2.864157212
