29
0  1  0  1  0  1  12  17 91.11023 94.56671 89.94292 86.48643 89.63432 87.75374 130.13907 130.12631 129.98240 83.94391 -92.43130 240.25602 -19.34664 -44.53417
N	 0.184849908	 -0.876904964	 2.041520341
H	 -0.032041480	 -1.837492869	 2.270006073
C	 -0.873687568	 -0.113328118	 1.530268409
O	 -1.972002994	 -0.614395439	 1.359197224
C	 -0.508105992	 1.265282904	 1.255242038
H	 -1.250974897	 1.925818080	 0.842765002
C	 0.742310703	 1.691942697	 1.526137861
H	 1.060618850	 2.707878330	 1.345437487
N	 1.692898419	 0.860609293	 2.054686420
H	 2.614104561	 1.197909063	 2.279032434
C	 1.461551814	 -0.469170751	 2.363916404
O	 2.302574932	 -1.189915848	 2.864191949
C	 -0.638592112	 -0.030600083	 4.773585912
C	 -1.955338297	 0.710688717	 4.988458816
H	 -2.662409700	 0.092482533	 5.543321157
H	 -1.795838737	 1.630873265	 5.552643833
H	 -2.413048072	 0.972185737	 4.033305161
C	 -0.023155497	 -0.384038005	 6.124863354
H	 0.920006676	 -0.916411315	 5.994081523
H	 0.173865455	 0.515703735	 6.709665497
H	 -0.694449518	 -1.021775012	 6.701600102
C	 0.326532160	 0.862877739	 3.997796819
H	 1.275102641	 0.350283032	 3.827442823
H	 0.531822359	 1.781014188	 4.551223192
H	 -0.095863228	 1.141364348	 3.030332380
C	 -0.899909306	 -1.310634476	 3.983221018
H	 -1.363647707	 -1.088800772	 3.020596380
H	 0.032666994	 -1.849033396	 3.803584338
H	 -1.570417114	 -1.972448439	 4.533405940
