29
0  1  0  1  0  1  12  17 -2.15386 -2.02958 -2.19527 -2.31955 -2.23773 -2.28586  1.01744  1.01428  1.01233 -2.29645 -1.18557  2.59939 -0.24067 -3.46960
N	 -4.144805974	 -0.914193279	 0.029887647
H	 -3.837610549	 -1.877290175	 0.037103402
C	 -4.285478130	 -0.305169988	 1.284571552
O	 -4.067281351	 -0.934440616	 2.305864471
C	 -4.694816194	 1.086272303	 1.205904877
H	 -4.846571043	 1.634089708	 2.119778386
C	 -4.868680760	 1.664657622	 -0.000000000
H	 -5.166085281	 2.696806189	 -0.110985574
N	 -4.674076611	 0.977492884	 -1.167916805
H	 -4.779299216	 1.427888779	 -2.061669996
C	 -4.278640564	 -0.348544214	 -1.220025792
O	 -4.076020895	 -0.939877393	 -2.262301832
C	 0.585305817	 -0.000315929	 0.000452937
C	 0.830012897	 0.836411210	 1.253252245
H	 1.828047517	 0.652757028	 1.653501057
H	 0.745398344	 1.901487383	 1.032033873
H	 0.104563319	 0.591620231	 2.030425148
C	 1.614269600	 0.362324430	 -1.066953649
H	 1.457867464	 -0.226096170	 -1.972149586
H	 1.543326785	 1.418127789	 -1.332645920
H	 2.627099587	 0.170955341	 -0.709850418
C	 -0.816919620	 0.282883467	 -0.533567779
H	 -1.016416614	 -0.309839272	 -1.428241171
H	 -0.924803656	 1.337292440	 -0.794301563
H	 -1.572996470	 0.043532968	 0.216778295
C	 0.712327452	 -1.481965611	 0.346908001
H	 0.003458917	 -1.763910471	 1.127242663
H	 0.524330735	 -2.100304385	 -0.532953172
H	 1.716395781	 -1.707729257	 0.709067438
