29
0  1  0  1  0  1  12  17 14.85261 15.81263 14.61122 13.65120 14.47685 13.99273 28.53817 28.53465 28.51855 13.74114 -20.52934 53.89060 -3.99704 -15.62308
N	 -3.152907071	 -0.914095557	 0.029897976
H	 -2.845711646	 -1.877192453	 0.037113731
C	 -3.293579227	 -0.305072266	 1.284581881
O	 -3.075382448	 -0.934342894	 2.305874800
C	 -3.702917291	 1.086370025	 1.205915206
H	 -3.854672140	 1.634187430	 2.119788715
C	 -3.876781857	 1.664755344	 0.000010329
H	 -4.174186378	 2.696903911	 -0.110975245
N	 -3.682177708	 0.977590606	 -1.167906476
H	 -3.787400313	 1.427986501	 -2.061659667
C	 -3.286741661	 -0.348446492	 -1.220015463
O	 -3.084121992	 -0.939779671	 -2.262291503
C	 0.585305817	 -0.000315929	 0.000452937
C	 0.830012897	 0.836411210	 1.253252245
H	 1.828047517	 0.652757028	 1.653501057
H	 0.745398344	 1.901487383	 1.032033873
H	 0.104563319	 0.591620231	 2.030425148
C	 1.614269600	 0.362324430	 -1.066953649
H	 1.457867464	 -0.226096170	 -1.972149586
H	 1.543326785	 1.418127789	 -1.332645920
H	 2.627099587	 0.170955341	 -0.709850418
C	 -0.816919620	 0.282883467	 -0.533567779
H	 -1.016416614	 -0.309839272	 -1.428241171
H	 -0.924803656	 1.337292440	 -0.794301563
H	 -1.572996470	 0.043532968	 0.216778295
C	 0.712327452	 -1.481965611	 0.346908001
H	 0.003458917	 -1.763910471	 1.127242663
H	 0.524330735	 -2.100304385	 -0.532953172
H	 1.716395781	 -1.707729257	 0.709067438
