29
0  1  0  1  0  1  12  17 12.88681 13.81604 12.52183 11.59261 12.38508 11.91724 26.45569 26.44865 26.42566 12.07290 -19.23816 51.31476 -4.88101 -15.12270
N	 -1.114013918	 -0.476653853	 -0.029897976
H	 -1.421209343	 -1.439750749	 -0.037113731
C	 -0.973341762	 0.132369438	 -1.284581881
O	 -1.191538541	 -0.496901190	 -2.305874800
C	 -0.564003698	 1.523811729	 -1.205915206
H	 -0.412248849	 2.071629134	 -2.119788715
C	 -0.390139132	 2.102197048	 -0.000010329
H	 -0.092734611	 3.134345615	 0.110975245
N	 -0.584743281	 1.415032310	 1.167906476
H	 -0.479520676	 1.865428205	 2.061659667
C	 -0.980179328	 0.088995212	 1.220015463
O	 -1.182798997	 -0.502337967	 2.262291503
C	 -4.422242577	 2.186892594	 -0.000452937
C	 -4.666949657	 3.023619733	 -1.253252245
H	 -5.664984277	 2.839965551	 -1.653501057
H	 -4.582335104	 4.088695906	 -1.032033873
H	 -3.941500080	 2.778828754	 -2.030425148
C	 -5.451206361	 2.549532953	 1.066953649
H	 -5.294804224	 1.961112353	 1.972149586
H	 -5.380263546	 3.605336312	 1.332645920
H	 -6.464036348	 2.358163864	 0.709850418
C	 -3.020017141	 2.470091990	 0.533567779
H	 -2.820520146	 1.877369251	 1.428241171
H	 -2.912133105	 3.524500963	 0.794301563
H	 -2.263940290	 2.230741491	 -0.216778295
C	 -4.549264213	 0.705242912	 -0.346908001
H	 -3.840395677	 0.423298052	 -1.127242663
H	 -4.361267496	 0.086904138	 0.532953172
H	 -5.553332542	 0.479479266	 -0.709067438
