29
0  1  0  1  0  1  12  17 -2.98516 -2.63382 -2.81184 -3.16318 -2.91265 -3.06026  3.05445  3.04483  3.03827 -3.00696 -4.06374  9.04738 -1.23428 -6.75632
N	 -0.441748680	 -1.023529198	 -0.029890229
H	 -0.748944105	 -1.986626094	 -0.037105984
C	 -0.301076524	 -0.414505907	 -1.284574134
O	 -0.519273303	 -1.043776535	 -2.305867053
C	 0.108261540	 0.976936384	 -1.205907459
H	 0.260016389	 1.524753789	 -2.119780968
C	 0.282126106	 1.555321703	 -0.000002582
H	 0.579530627	 2.587470270	 0.110982992
N	 0.087521957	 0.868156965	 1.167914223
H	 0.192744562	 1.318552860	 2.061667414
C	 -0.307914090	 -0.457880133	 1.220023210
O	 -0.510533759	 -1.049213312	 2.262299250
C	 -4.242667339	 -2.187435023	 -0.000452937
C	 -5.089647837	 -1.980994001	 -1.253252245
H	 -5.429615960	 -2.937144427	 -1.653501057
H	 -5.969723583	 -1.375177562	 -1.032033873
H	 -4.514927842	 -1.475131727	 -2.030425148
C	 -5.071204994	 -2.897223619	 1.066953649
H	 -4.483416738	 -3.055985696	 1.972149586
H	 -5.950086117	 -2.307883660	 1.332645920
H	 -5.411889495	 -3.870044662	 0.709850418
C	 -3.786812492	 -0.831472475	 0.533567779
H	 -3.173751045	 -0.955064379	 1.428241171
H	 -4.646015431	 -0.210837673	 0.794301563
H	 -3.201490454	 -0.296365965	 -0.216778295
C	 -3.023031893	 -3.038263827	 -0.346908001
H	 -2.424426213	 -2.565338097	 -1.127242663
H	 -2.393536448	 -3.184623281	 0.532953172
H	 -3.329549005	 -4.020694330	 -0.709067438
