29
0  1  0  1  0  1  12  17 -2.24483 -2.10144 -2.30113 -2.44452 -2.35992 -2.41030  1.52416  1.51823  1.51474 -2.40755 -0.94598  2.85390 -0.29973 -4.01574
N	 -4.144805974	 -0.914193279	 0.029887647
H	 -3.837610549	 -1.877290175	 0.037103402
C	 -4.285478130	 -0.305169988	 1.284571552
O	 -4.067281351	 -0.934440616	 2.305864471
C	 -4.694816194	 1.086272303	 1.205904877
H	 -4.846571043	 1.634089708	 2.119778386
C	 -4.868680760	 1.664657622	 -0.000000000
H	 -5.166085281	 2.696806189	 -0.110985574
N	 -4.674076611	 0.977492884	 -1.167916805
H	 -4.779299216	 1.427888779	 -2.061669996
C	 -4.278640564	 -0.348544214	 -1.220025792
O	 -4.076020895	 -0.939877393	 -2.262301832
C	 0.238677191	 -0.000313171	 0.000347540
C	 0.158121326	 0.601960247	 1.400446626
H	 0.626998291	 -0.056106250	 2.133320387
H	 0.666461108	 1.566650546	 1.438495763
H	 -0.880549912	 0.752689829	 1.698171476
C	 1.701131202	 -0.200739300	 -0.387839202
H	 1.781633975	 -0.632125419	 -1.386591140
H	 2.237946492	 0.749084638	 -0.384703758
H	 2.199336831	 -0.872884786	 0.312147245
C	 -0.423352593	 0.946057418	 -0.998509542
H	 -0.382295118	 0.532492966	 -2.007884845
H	 0.082673750	 1.913144393	 -1.007424537
H	 -1.469225074	 1.116812231	 -0.735919285
C	 -0.480857247	 -1.346970253	 -0.015024012
H	 -1.524761685	 -1.236707397	 0.283330334
H	 -0.449672742	 -1.788468981	 -1.012995799
H	 -0.006644245	 -2.044521470	 0.676948689
