29
0  1  0  1  0  1  12  17 -1.90712 -1.83224 -1.94652 -2.02140 -1.97620 -2.00273  0.32765  0.32587  0.32493 -2.01396 -0.61329  1.16241 -0.12901 -2.43407
N	 -4.392780700	 -0.914217709	 0.029885065
H	 -4.085585275	 -1.877314605	 0.037100820
C	 -4.533452856	 -0.305194418	 1.284568970
O	 -4.315256077	 -0.934465046	 2.305861889
C	 -4.942790920	 1.086247873	 1.205902295
H	 -5.094545769	 1.634065278	 2.119775804
C	 -5.116655486	 1.664633192	 -0.000002582
H	 -5.414060007	 2.696781759	 -0.110988156
N	 -4.922051337	 0.977468454	 -1.167919387
H	 -5.027273942	 1.427864349	 -2.061672578
C	 -4.526615290	 -0.348568644	 -1.220028374
O	 -4.323995621	 -0.939901823	 -2.262304414
C	 0.585305817	 -0.000315929	 0.000452937
C	 0.830012897	 0.836411210	 1.253252245
H	 1.828047517	 0.652757028	 1.653501057
H	 0.745398344	 1.901487383	 1.032033873
H	 0.104563319	 0.591620231	 2.030425148
C	 1.614269600	 0.362324430	 -1.066953649
H	 1.457867464	 -0.226096170	 -1.972149586
H	 1.543326785	 1.418127789	 -1.332645920
H	 2.627099587	 0.170955341	 -0.709850418
C	 -0.816919620	 0.282883467	 -0.533567779
H	 -1.016416614	 -0.309839272	 -1.428241171
H	 -0.924803656	 1.337292440	 -0.794301563
H	 -1.572996470	 0.043532968	 0.216778295
C	 0.712327452	 -1.481965611	 0.346908001
H	 0.003458917	 -1.763910471	 1.127242663
H	 0.524330735	 -2.100304385	 -0.532953172
H	 1.716395781	 -1.707729257	 0.709067438
