29
0  1  0  1  0  1  12  17 84.29544 86.94199 83.64629 80.99974 83.41558 81.96933 112.47099 112.46390 112.34635 74.77024 -78.90720 205.41342 -16.98527 -34.75071
N	 -2.656957620	 -0.914046697	 0.029903140
H	 -2.349762195	 -1.877143593	 0.037118895
C	 -2.797629776	 -0.305023406	 1.284587045
O	 -2.579432997	 -0.934294034	 2.305879964
C	 -3.206967840	 1.086418885	 1.205920370
H	 -3.358722689	 1.634236290	 2.119793879
C	 -3.380832406	 1.664804204	 0.000015493
H	 -3.678236927	 2.696952771	 -0.110970081
N	 -3.186228257	 0.977639466	 -1.167901312
H	 -3.291450862	 1.428035361	 -2.061654503
C	 -2.790792210	 -0.348397632	 -1.220010299
O	 -2.588172541	 -0.939730811	 -2.262286339
C	 0.585305817	 -0.000315929	 0.000452937
C	 0.830012897	 0.836411210	 1.253252245
H	 1.828047517	 0.652757028	 1.653501057
H	 0.745398344	 1.901487383	 1.032033873
H	 0.104563319	 0.591620231	 2.030425148
C	 1.614269600	 0.362324430	 -1.066953649
H	 1.457867464	 -0.226096170	 -1.972149586
H	 1.543326785	 1.418127789	 -1.332645920
H	 2.627099587	 0.170955341	 -0.709850418
C	 -0.816919620	 0.282883467	 -0.533567779
H	 -1.016416614	 -0.309839272	 -1.428241171
H	 -0.924803656	 1.337292440	 -0.794301563
H	 -1.572996470	 0.043532968	 0.216778295
C	 0.712327452	 -1.481965611	 0.346908001
H	 0.003458917	 -1.763910471	 1.127242663
H	 0.524330735	 -2.100304385	 -0.532953172
H	 1.716395781	 -1.707729257	 0.709067438
