29
0  1  0  1  0  1  12  17 -2.00521 -1.91668 -2.06219 -2.15071 -2.10430 -2.13182  0.72526  0.72181  0.72018 -2.14144 -0.42439  1.33955 -0.16260 -2.89399
N	 -4.375468418	 -0.914217748	 0.029885104
H	 -4.068272993	 -1.877314644	 0.037100859
C	 -4.516140574	 -0.305194457	 1.284569009
O	 -4.297943795	 -0.934465085	 2.305861928
C	 -4.925478638	 1.086247834	 1.205902334
H	 -5.077233487	 1.634065239	 2.119775843
C	 -5.099343204	 1.664633153	 -0.000002543
H	 -5.396747725	 2.696781720	 -0.110988117
N	 -4.904739055	 0.977468415	 -1.167919348
H	 -5.009961660	 1.427864310	 -2.061672539
C	 -4.509303008	 -0.348568683	 -1.220028335
O	 -4.306683339	 -0.939901862	 -2.262304375
C	 0.238677191	 -0.000313171	 0.000347540
C	 0.158121326	 0.601960247	 1.400446626
H	 0.626998291	 -0.056106250	 2.133320387
H	 0.666461108	 1.566650546	 1.438495763
H	 -0.880549912	 0.752689829	 1.698171476
C	 1.701131202	 -0.200739300	 -0.387839202
H	 1.781633975	 -0.632125419	 -1.386591140
H	 2.237946492	 0.749084638	 -0.384703758
H	 2.199336831	 -0.872884786	 0.312147245
C	 -0.423352593	 0.946057418	 -0.998509542
H	 -0.382295118	 0.532492966	 -2.007884845
H	 0.082673750	 1.913144393	 -1.007424537
H	 -1.469225074	 1.116812231	 -0.735919285
C	 -0.480857247	 -1.346970253	 -0.015024012
H	 -1.524761685	 -1.236707397	 0.283330334
H	 -0.449672742	 -1.788468981	 -1.012995799
H	 -0.006644245	 -2.044521470	 0.676948689
