29
0  1  0  1  0  1  12  17 -2.33340 -2.23391 -2.42246 -2.52195 -2.46555 -2.49856  0.73524  0.73371  0.73276 -2.48102 -0.65411  1.67521 -0.19683 -3.30528
N	 -4.374678382	 -0.914217748	 0.029885027
H	 -4.067482957	 -1.877314644	 0.037100782
C	 -4.515350538	 -0.305194457	 1.284568932
O	 -4.297153759	 -0.934465085	 2.305861851
C	 -4.924688602	 1.086247834	 1.205902257
H	 -5.076443451	 1.634065239	 2.119775766
C	 -5.098553168	 1.664633153	 -0.000002620
H	 -5.395957689	 2.696781720	 -0.110988194
N	 -4.903949019	 0.977468415	 -1.167919425
H	 -5.009171624	 1.427864310	 -2.061672616
C	 -4.508512972	 -0.348568683	 -1.220028412
O	 -4.305893303	 -0.939901862	 -2.262304452
C	 0.223329299	 -0.000313171	 0.000436969
C	 1.395572742	 0.601960247	 0.770249938
H	 2.264698519	 -0.056106250	 0.730627455
H	 1.682694152	 1.566650546	 0.349039341
H	 1.134074407	 0.752689829	 1.818628041
C	 0.618376724	 -0.200739300	 -1.460178728
H	 -0.206316440	 -0.632125419	 -2.029272143
H	 0.889499743	 0.749084638	 -1.923506684
H	 1.473685584	 -0.872884786	 -1.541644235
C	 -0.972721201	 0.946057418	 0.074343039
H	 -1.826337118	 0.532492966	 -0.465901429
H	 -0.727428642	 1.913144393	 -0.368346127
H	 -1.268247608	 1.116812231	 1.111390305
C	 -0.149750075	 -1.346970253	 0.615886295
H	 -0.413319851	 -1.236707397	 1.669111231
H	 -0.998426743	 -1.788468981	 0.089893828
H	 0.686622364	 -2.044521470	 0.551192139
