29
0  1  0  1  0  1  12  17 -1.93816 -1.73739 -1.91635 -2.11712 -1.97482 -2.05781  2.42281  2.41902  2.41732 -2.06339 -2.14754  5.24275 -0.39418 -4.76443
N	 -3.898406831	 -0.914168772	 0.029890229
H	 -3.591211406	 -1.877265668	 0.037105984
C	 -4.039078987	 -0.305145481	 1.284574134
O	 -3.820882208	 -0.934416109	 2.305867053
C	 -4.448417051	 1.086296810	 1.205907459
H	 -4.600171900	 1.634114215	 2.119780968
C	 -4.622281617	 1.664682129	 0.000002582
H	 -4.919686138	 2.696830696	 -0.110982992
N	 -4.427677468	 0.977517391	 -1.167914223
H	 -4.532900073	 1.427913286	 -2.061667414
C	 -4.032241421	 -0.348519707	 -1.220023210
O	 -3.829621752	 -0.939852886	 -2.262299250
C	 0.553480992	 -0.000226500	 0.000452937
C	 1.400461490	 0.206214522	 1.253252245
H	 1.740429613	 -0.749935904	 1.653501057
H	 2.280537236	 0.812030961	 1.032033873
H	 0.825741494	 0.712076796	 2.030425148
C	 1.382018646	 -0.710015096	 -1.066953649
H	 0.794230391	 -0.868777173	 -1.972149586
H	 2.260899769	 -0.120675137	 -1.332645920
H	 1.722703147	 -1.682836139	 -0.709850418
C	 0.097626144	 1.355736048	 -0.533567779
H	 -0.515435302	 1.232144144	 -1.428241171
H	 0.956829083	 1.976370850	 -0.794301563
H	 -0.487695893	 1.890842558	 0.216778295
C	 -0.666154455	 -0.851055304	 0.346908001
H	 -1.264760134	 -0.378129574	 1.127242663
H	 -1.295649900	 -0.997414758	 -0.532953172
H	 -0.359637343	 -1.833485807	 0.709067438
