29
0  1  0  1  0  1  12  17 -1.64953 -1.59377 -1.70598 -1.76174 -1.73636 -1.75134  0.34985  0.34780  0.34707 -1.75774 -0.17996  0.62400 -0.09301 -2.10877
N	 -4.606130863	 -0.914242216	 0.029882561
H	 -4.298935438	 -1.877339112	 0.037098316
C	 -4.746803019	 -0.305218925	 1.284566466
O	 -4.528606240	 -0.934489553	 2.305859385
C	 -5.156141083	 1.086223366	 1.205899791
H	 -5.307895932	 1.634040771	 2.119773300
C	 -5.330005649	 1.664608685	 -0.000005086
H	 -5.627410170	 2.696757252	 -0.110990660
N	 -5.135401500	 0.977443947	 -1.167921891
H	 -5.240624105	 1.427839842	 -2.061675082
C	 -4.739965453	 -0.348593151	 -1.220030878
O	 -4.537345784	 -0.939926330	 -2.262306918
C	 0.238677191	 -0.000313171	 0.000347540
C	 0.158121326	 0.601960247	 1.400446626
H	 0.626998291	 -0.056106250	 2.133320387
H	 0.666461108	 1.566650546	 1.438495763
H	 -0.880549912	 0.752689829	 1.698171476
C	 1.701131202	 -0.200739300	 -0.387839202
H	 1.781633975	 -0.632125419	 -1.386591140
H	 2.237946492	 0.749084638	 -0.384703758
H	 2.199336831	 -0.872884786	 0.312147245
C	 -0.423352593	 0.946057418	 -0.998509542
H	 -0.382295118	 0.532492966	 -2.007884845
H	 0.082673750	 1.913144393	 -1.007424537
H	 -1.469225074	 1.116812231	 -0.735919285
C	 -0.480857247	 -1.346970253	 -0.015024012
H	 -1.524761685	 -1.236707397	 0.283330334
H	 -0.449672742	 -1.788468981	 -1.012995799
H	 -0.006644245	 -2.044521470	 0.676948689
