29
0  1  0  1  0  1  12  17 -0.66401 -0.28819 -0.75044 -1.12626 -0.85632 -1.01785  6.72290  6.70969  6.69672 -0.85587 -4.31184 12.58317 -1.16557 -7.96162
N	 -3.683481085	 -0.914144342	 0.029892733
H	 -3.376285660	 -1.877241238	 0.037108488
C	 -3.824153241	 -0.305121051	 1.284576638
O	 -3.605956462	 -0.934391679	 2.305869557
C	 -4.233491305	 1.086321240	 1.205909963
H	 -4.385246154	 1.634138645	 2.119783472
C	 -4.407355871	 1.664706559	 0.000005086
H	 -4.704760392	 2.696855126	 -0.110980488
N	 -4.212751722	 0.977541821	 -1.167911719
H	 -4.317974327	 1.427937716	 -2.061664910
C	 -3.817315675	 -0.348495277	 -1.220020706
O	 -3.614696006	 -0.939828456	 -2.262296746
C	 0.238677191	 -0.000313171	 0.000347540
C	 0.158121326	 0.601960247	 1.400446626
H	 0.626998291	 -0.056106250	 2.133320387
H	 0.666461108	 1.566650546	 1.438495763
H	 -0.880549912	 0.752689829	 1.698171476
C	 1.701131202	 -0.200739300	 -0.387839202
H	 1.781633975	 -0.632125419	 -1.386591140
H	 2.237946492	 0.749084638	 -0.384703758
H	 2.199336831	 -0.872884786	 0.312147245
C	 -0.423352593	 0.946057418	 -0.998509542
H	 -0.382295118	 0.532492966	 -2.007884845
H	 0.082673750	 1.913144393	 -1.007424537
H	 -1.469225074	 1.116812231	 -0.735919285
C	 -0.480857247	 -1.346970253	 -0.015024012
H	 -1.524761685	 -1.236707397	 0.283330334
H	 -0.449672742	 -1.788468981	 -1.012995799
H	 -0.006644245	 -2.044521470	 0.676948689
