29
0  1  0  1  0  1  12  17 -2.31556 -2.04591 -2.33972 -2.60936 -2.41663 -2.53240  2.55357  2.54704  2.53674 -2.38915 -3.23513  7.45453 -1.16382 -5.44473
N	 -0.455365326	 -0.914168810	 -0.139250616
H	 -0.762560751	 -1.877265706	 -0.146466371
C	 -0.314693170	 -0.305145519	 -1.393934521
O	 -0.532889949	 -0.934416147	 -2.415227440
C	 0.094644894	 1.086296772	 -1.315267846
H	 0.246399743	 1.634114177	 -2.229141355
C	 0.268509460	 1.664682091	 -0.109362969
H	 0.565913981	 2.696830658	 0.001622605
N	 0.073905311	 0.977517353	 1.058553836
H	 0.179127916	 1.427913248	 1.952307027
C	 -0.321530736	 -0.348519745	 1.110662823
O	 -0.524150405	 -0.939852924	 2.152938863
C	 -4.514930429	 -0.000313171	 -2.187556063
C	 -4.434374564	 0.601960247	 -3.587655149
H	 -4.903251530	 -0.056106250	 -4.320528910
H	 -4.942714347	 1.566650546	 -3.625704286
H	 -3.395703326	 0.752689829	 -3.885379999
C	 -5.977384441	 -0.200739300	 -1.799369321
H	 -6.057887214	 -0.632125419	 -0.800617383
H	 -6.514199731	 0.749084638	 -1.802504765
H	 -6.475590070	 -0.872884786	 -2.499355768
C	 -3.852900645	 0.946057418	 -1.188698981
H	 -3.893958121	 0.532492966	 -0.179323678
H	 -4.358926989	 1.913144393	 -1.179783986
H	 -2.807028164	 1.116812231	 -1.451289238
C	 -3.795395992	 -1.346970253	 -2.172184511
H	 -2.751491553	 -1.236707397	 -2.470538857
H	 -3.826580497	 -1.788468981	 -1.174212724
H	 -4.269608994	 -2.044521470	 -2.864157212
