29
0  1  0  1  0  1  12  17 16.34219 17.32407 16.36936 15.38748 16.23521 15.73203 30.18099 30.17353 30.14252 15.70048 -20.27305 54.93465 -3.77445 -15.18667
N	 -3.159209403	 -0.914095251	 0.029897976
H	 -2.852013978	 -1.877192147	 0.037113731
C	 -3.299881559	 -0.305071960	 1.284581881
O	 -3.081684780	 -0.934342588	 2.305874800
C	 -3.709219623	 1.086370331	 1.205915206
H	 -3.860974472	 1.634187736	 2.119788715
C	 -3.883084189	 1.664755650	 0.000010329
H	 -4.180488710	 2.696904217	 -0.110975245
N	 -3.688480040	 0.977590912	 -1.167906476
H	 -3.793702645	 1.427986807	 -2.061659667
C	 -3.293043993	 -0.348446186	 -1.220015463
O	 -3.090424324	 -0.939779365	 -2.262291503
C	 0.553480992	 -0.000226500	 0.000452937
C	 1.400461490	 0.206214522	 1.253252245
H	 1.740429613	 -0.749935904	 1.653501057
H	 2.280537236	 0.812030961	 1.032033873
H	 0.825741494	 0.712076796	 2.030425148
C	 1.382018646	 -0.710015096	 -1.066953649
H	 0.794230391	 -0.868777173	 -1.972149586
H	 2.260899769	 -0.120675137	 -1.332645920
H	 1.722703147	 -1.682836139	 -0.709850418
C	 0.097626144	 1.355736048	 -0.533567779
H	 -0.515435302	 1.232144144	 -1.428241171
H	 0.956829083	 1.976370850	 -0.794301563
H	 -0.487695893	 1.890842558	 0.216778295
C	 -0.666154455	 -0.851055304	 0.346908001
H	 -1.264760134	 -0.378129574	 1.127242663
H	 -1.295649900	 -0.997414758	 -0.532953172
H	 -0.359637343	 -1.833485807	 0.709067438
