29
0  1  0  1  0  1  12  17 -1.77471 -1.71205 -1.80229 -1.86494 -1.83036 -1.85040 -0.07329 -0.07416 -0.07429 -1.87172 -0.50794  0.73170 -0.19053 -1.90496
N	 0.221897436	 -0.914242216	 0.188838292
H	 -0.085297989	 -1.877339112	 0.181622537
C	 0.362569592	 -0.305218925	 -1.065845613
O	 0.144372813	 -0.934489553	 -2.087138532
C	 0.771907656	 1.086223366	 -0.987178938
H	 0.923662505	 1.634040771	 -1.901052447
C	 0.945772222	 1.664608685	 0.218725939
H	 1.243176743	 2.696757252	 0.329711513
N	 0.751168073	 0.977443947	 1.386642744
H	 0.856390678	 1.427839842	 2.280395935
C	 0.355732026	 -0.348593151	 1.438751731
O	 0.153112357	 -0.939926330	 2.481027771
C	 -4.514930429	 -0.000313171	 -2.187556063
C	 -4.434374564	 0.601960247	 -3.587655149
H	 -4.903251530	 -0.056106250	 -4.320528910
H	 -4.942714347	 1.566650546	 -3.625704286
H	 -3.395703326	 0.752689829	 -3.885379999
C	 -5.977384441	 -0.200739300	 -1.799369321
H	 -6.057887214	 -0.632125419	 -0.800617383
H	 -6.514199731	 0.749084638	 -1.802504765
H	 -6.475590070	 -0.872884786	 -2.499355768
C	 -3.852900645	 0.946057418	 -1.188698981
H	 -3.893958121	 0.532492966	 -0.179323678
H	 -4.358926989	 1.913144393	 -1.179783986
H	 -2.807028164	 1.116812231	 -1.451289238
C	 -3.795395992	 -1.346970253	 -2.172184511
H	 -2.751491553	 -1.236707397	 -2.470538857
H	 -3.826580497	 -1.788468981	 -1.174212724
H	 -4.269608994	 -2.044521470	 -2.864157212
