29
0  1  0  1  0  1  12  17 -1.90627 -1.82744 -1.98449 -2.06333 -2.01665 -2.04374  0.30870  0.30688  0.30662 -1.99157 -0.65504  1.23403 -0.17227 -2.39829
N	 -0.008510361	 -1.023578136	 -0.029885065
H	 -0.315705786	 -1.986675032	 -0.037100820
C	 0.132161795	 -0.414554845	 -1.284568970
O	 -0.086034984	 -1.043825473	 -2.305861889
C	 0.541499859	 0.976887446	 -1.205902295
H	 0.693254708	 1.524704851	 -2.119775804
C	 0.715364425	 1.555272765	 0.000002582
H	 1.012768946	 2.587421332	 0.110988156
N	 0.520760276	 0.868108027	 1.167919387
H	 0.625982881	 1.318503922	 2.061672578
C	 0.125324229	 -0.457929071	 1.220028374
O	 -0.077295440	 -1.049262250	 2.262304414
C	 -4.422242577	 2.186892594	 -0.000452937
C	 -4.666949657	 3.023619733	 -1.253252245
H	 -5.664984277	 2.839965551	 -1.653501057
H	 -4.582335104	 4.088695906	 -1.032033873
H	 -3.941500080	 2.778828754	 -2.030425148
C	 -5.451206361	 2.549532953	 1.066953649
H	 -5.294804224	 1.961112353	 1.972149586
H	 -5.380263546	 3.605336312	 1.332645920
H	 -6.464036348	 2.358163864	 0.709850418
C	 -3.020017141	 2.470091990	 0.533567779
H	 -2.820520146	 1.877369251	 1.428241171
H	 -2.912133105	 3.524500963	 0.794301563
H	 -2.263940290	 2.230741491	 -0.216778295
C	 -4.549264213	 0.705242912	 -0.346908001
H	 -3.840395677	 0.423298052	 -1.127242663
H	 -4.361267496	 0.086904138	 0.532953172
H	 -5.553332542	 0.479479266	 -0.709067438
