29
0  1  0  1  0  1  12  17 70.32986 72.91464 69.45553 66.87075 69.20959 67.81088 99.54824 99.53090 99.42051 64.44675 -79.55325 211.87167 -32.36085 -35.51083
N	 -1.584136596	 -0.914046467	 -0.686065463
H	 -1.891332021	 -1.877143363	 -0.693281218
C	 -1.443464440	 -0.305023176	 -1.940749368
O	 -1.661661219	 -0.934293804	 -2.962042287
C	 -1.034126376	 1.086419115	 -1.862082693
H	 -0.882371527	 1.634236520	 -2.775956202
C	 -0.860261810	 1.664804434	 -0.656177816
H	 -0.562857289	 2.696953001	 -0.545192242
N	 -1.054865959	 0.977639696	 0.511738989
H	 -0.949643354	 1.428035591	 1.405492180
C	 -1.450302006	 -0.348397402	 0.563847976
O	 -1.652921675	 -0.939730581	 1.606124016
C	 -4.514930429	 -0.000313171	 -2.187556063
C	 -4.434374564	 0.601960247	 -3.587655149
H	 -4.903251530	 -0.056106250	 -4.320528910
H	 -4.942714347	 1.566650546	 -3.625704286
H	 -3.395703326	 0.752689829	 -3.885379999
C	 -5.977384441	 -0.200739300	 -1.799369321
H	 -6.057887214	 -0.632125419	 -0.800617383
H	 -6.514199731	 0.749084638	 -1.802504765
H	 -6.475590070	 -0.872884786	 -2.499355768
C	 -3.852900645	 0.946057418	 -1.188698981
H	 -3.893958121	 0.532492966	 -0.179323678
H	 -4.358926989	 1.913144393	 -1.179783986
H	 -2.807028164	 1.116812231	 -1.451289238
C	 -3.795395992	 -1.346970253	 -2.172184511
H	 -2.751491553	 -1.236707397	 -2.470538857
H	 -3.826580497	 -1.788468981	 -1.174212724
H	 -4.269608994	 -2.044521470	 -2.864157212
