29
0  1  0  1  0  1  12  17 -1.24349 -0.78743 -1.18235 -1.63841 -1.28054 -1.49274  6.34993  6.34716  6.33459 -1.28123 -6.80080 15.64121 -1.53219 -8.58944
N	 -0.671829976	 -0.914144342	 0.188827966
H	 -0.979025401	 -1.877241238	 0.181612211
C	 -0.531157820	 -0.305121051	 -1.065855939
O	 -0.749354599	 -0.934391679	 -2.087148858
C	 -0.121819756	 1.086321240	 -0.987189264
H	 0.029935093	 1.634138645	 -1.901062773
C	 0.052044810	 1.664706559	 0.218715613
H	 0.349449331	 2.696855126	 0.329701187
N	 -0.142559339	 0.977541821	 1.386632418
H	 -0.037336734	 1.427937716	 2.280385609
C	 -0.537995386	 -0.348495277	 1.438741405
O	 -0.740615055	 -0.939828456	 2.481017445
C	 -4.422487220	 -0.000313171	 2.186771554
C	 -5.594730663	 0.601960247	 1.416958585
H	 -6.463856441	 -0.056106250	 1.456581068
H	 -5.881852074	 1.566650546	 1.838169182
H	 -5.333232328	 0.752689829	 0.368580482
C	 -4.817534646	 -0.200739300	 3.647387251
H	 -3.992841482	 -0.632125419	 4.216480666
H	 -5.088657665	 0.749084638	 4.110715207
H	 -5.672843506	 -0.872884786	 3.728852758
C	 -3.226436720	 0.946057418	 2.112865484
H	 -2.372820804	 0.532492966	 2.653109952
H	 -3.471729280	 1.913144393	 2.555554650
H	 -2.930910313	 1.116812231	 1.075818218
C	 -4.049407847	 -1.346970253	 1.571322228
H	 -3.785838070	 -1.236707397	 0.518097292
H	 -3.200731179	 -1.788468981	 2.097314695
H	 -4.885780286	 -2.044521470	 1.636016384
