29
0  1  0  1  0  1  12  17 12.75199 13.82171 12.41205 11.34233 12.25393 11.71813 27.27072 27.25423 27.23340 12.73137 -24.12978 62.58316 -9.07593 -16.64607
N	 -1.132628088	 -0.914095404	 -0.467339524
H	 -1.439823513	 -1.877192300	 -0.474555279
C	 -0.991955932	 -0.305072113	 -1.722023429
O	 -1.210152711	 -0.934342741	 -2.743316348
C	 -0.582617868	 1.086370178	 -1.643356754
H	 -0.430863019	 1.634187583	 -2.557230263
C	 -0.408753302	 1.664755497	 -0.437451877
H	 -0.111348781	 2.696904064	 -0.326466303
N	 -0.603357451	 0.977590759	 0.730464928
H	 -0.498134846	 1.427986654	 1.624218119
C	 -0.998793498	 -0.348446339	 0.782573915
O	 -1.201413167	 -0.939779518	 1.824849955
C	 -4.514930429	 -0.000313171	 -2.187556063
C	 -4.434374564	 0.601960247	 -3.587655149
H	 -4.903251530	 -0.056106250	 -4.320528910
H	 -4.942714347	 1.566650546	 -3.625704286
H	 -3.395703326	 0.752689829	 -3.885379999
C	 -5.977384441	 -0.200739300	 -1.799369321
H	 -6.057887214	 -0.632125419	 -0.800617383
H	 -6.514199731	 0.749084638	 -1.802504765
H	 -6.475590070	 -0.872884786	 -2.499355768
C	 -3.852900645	 0.946057418	 -1.188698981
H	 -3.893958121	 0.532492966	 -0.179323678
H	 -4.358926989	 1.913144393	 -1.179783986
H	 -2.807028164	 1.116812231	 -1.451289238
C	 -3.795395992	 -1.346970253	 -2.172184511
H	 -2.751491553	 -1.236707397	 -2.470538857
H	 -3.826580497	 -1.788468981	 -1.174212724
H	 -4.269608994	 -2.044521470	 -2.864157212
