29
0  1  0  1  0  1  12  17 -1.55810 -1.50924 -1.62542 -1.67428 -1.64792 -1.66313  0.02116  0.02055  0.02062 -1.62777 -0.37861  0.56705 -0.10117 -1.71504
N	 0.212590351	 -1.132962992	 -0.029882483
H	 -0.094605074	 -2.096059888	 -0.037098238
C	 0.353262507	 -0.523939701	 -1.284566388
O	 0.135065728	 -1.153210329	 -2.305859307
C	 0.762600571	 0.867502590	 -1.205899713
H	 0.914355420	 1.415319995	 -2.119773222
C	 0.936465137	 1.445887909	 0.000005164
H	 1.233869658	 2.478036476	 0.110990738
N	 0.741860988	 0.758723171	 1.167921969
H	 0.847083593	 1.209119066	 2.061675160
C	 0.346424941	 -0.567313927	 1.220030956
O	 0.143805272	 -1.158647106	 2.262306996
C	 -4.422242577	 2.186892594	 -0.000452937
C	 -4.666949657	 3.023619733	 -1.253252245
H	 -5.664984277	 2.839965551	 -1.653501057
H	 -4.582335104	 4.088695906	 -1.032033873
H	 -3.941500080	 2.778828754	 -2.030425148
C	 -5.451206361	 2.549532953	 1.066953649
H	 -5.294804224	 1.961112353	 1.972149586
H	 -5.380263546	 3.605336312	 1.332645920
H	 -6.464036348	 2.358163864	 0.709850418
C	 -3.020017141	 2.470091990	 0.533567779
H	 -2.820520146	 1.877369251	 1.428241171
H	 -2.912133105	 3.524500963	 0.794301563
H	 -2.263940290	 2.230741491	 -0.216778295
C	 -4.549264213	 0.705242912	 -0.346908001
H	 -3.840395677	 0.423298052	 -1.127242663
H	 -4.361267496	 0.086904138	 0.532953172
H	 -5.553332542	 0.479479266	 -0.709067438
