29
0  1  0  1  0  1  12  17 -2.13070 -2.01031 -2.12889 -2.24928 -2.17093 -2.21625  0.90573  0.90283  0.90278 -2.24069 -1.05975  2.32247 -0.19946 -3.30395
N	 -4.144805974	 -0.914193279	 0.029887647
H	 -3.837610549	 -1.877290175	 0.037103402
C	 -4.285478130	 -0.305169988	 1.284571552
O	 -4.067281351	 -0.934440616	 2.305864471
C	 -4.694816194	 1.086272303	 1.205904877
H	 -4.846571043	 1.634089708	 2.119778386
C	 -4.868680760	 1.664657622	 -0.000000000
H	 -5.166085281	 2.696806189	 -0.110985574
N	 -4.674076611	 0.977492884	 -1.167916805
H	 -4.779299216	 1.427888779	 -2.061669996
C	 -4.278640564	 -0.348544214	 -1.220025792
O	 -4.076020895	 -0.939877393	 -2.262301832
C	 0.553480992	 -0.000226500	 0.000452937
C	 1.400461490	 0.206214522	 1.253252245
H	 1.740429613	 -0.749935904	 1.653501057
H	 2.280537236	 0.812030961	 1.032033873
H	 0.825741494	 0.712076796	 2.030425148
C	 1.382018646	 -0.710015096	 -1.066953649
H	 0.794230391	 -0.868777173	 -1.972149586
H	 2.260899769	 -0.120675137	 -1.332645920
H	 1.722703147	 -1.682836139	 -0.709850418
C	 0.097626144	 1.355736048	 -0.533567779
H	 -0.515435302	 1.232144144	 -1.428241171
H	 0.956829083	 1.976370850	 -0.794301563
H	 -0.487695893	 1.890842558	 0.216778295
C	 -0.666154455	 -0.851055304	 0.346908001
H	 -1.264760134	 -0.378129574	 1.127242663
H	 -1.295649900	 -0.997414758	 -0.532953172
H	 -0.359637343	 -1.833485807	 0.709067438
