29
0  1  0  1  0  1  12  17 -2.04339 -1.81016 -2.10386 -2.33709 -2.18442 -2.27572  3.21013  3.20073  3.19355 -2.22383 -2.04127  6.02608 -0.57979 -5.62885
N	 -3.914143530	 -0.914168810	 0.029890190
H	 -3.606948105	 -1.877265706	 0.037105945
C	 -4.054815686	 -0.305145519	 1.284574095
O	 -3.836618907	 -0.934416147	 2.305867014
C	 -4.464153750	 1.086296772	 1.205907420
H	 -4.615908599	 1.634114177	 2.119780929
C	 -4.638018316	 1.664682091	 0.000002543
H	 -4.935422837	 2.696830658	 -0.110983031
N	 -4.443414167	 0.977517353	 -1.167914262
H	 -4.548636772	 1.427913248	 -2.061667453
C	 -4.047978120	 -0.348519745	 -1.220023249
O	 -3.845358451	 -0.939852924	 -2.262299289
C	 0.238677191	 -0.000313171	 0.000347540
C	 0.158121326	 0.601960247	 1.400446626
H	 0.626998291	 -0.056106250	 2.133320387
H	 0.666461108	 1.566650546	 1.438495763
H	 -0.880549912	 0.752689829	 1.698171476
C	 1.701131202	 -0.200739300	 -0.387839202
H	 1.781633975	 -0.632125419	 -1.386591140
H	 2.237946492	 0.749084638	 -0.384703758
H	 2.199336831	 -0.872884786	 0.312147245
C	 -0.423352593	 0.946057418	 -0.998509542
H	 -0.382295118	 0.532492966	 -2.007884845
H	 0.082673750	 1.913144393	 -1.007424537
H	 -1.469225074	 1.116812231	 -0.735919285
C	 -0.480857247	 -1.346970253	 -0.015024012
H	 -1.524761685	 -1.236707397	 0.283330334
H	 -0.449672742	 -1.788468981	 -1.012995799
H	 -0.006644245	 -2.044521470	 0.676948689
