29
0  1  0  1  0  1  12  17 -2.33766 -2.24276 -2.28675 -2.38165 -2.33048 -2.36020 -0.11965 -0.12538 -0.12570 -2.39530 -0.78653  0.97722 -0.17022 -2.41578
N	 0.194664144	 -0.695521441	 -0.029882483
H	 -0.112531281	 -1.658618337	 -0.037098238
C	 0.335336300	 -0.086498150	 -1.284566388
O	 0.117139521	 -0.715768778	 -2.305859307
C	 0.744674364	 1.304944141	 -1.205899713
H	 0.896429213	 1.852761546	 -2.119773222
C	 0.918538930	 1.883329460	 0.000005164
H	 1.215943451	 2.915478027	 0.110990738
N	 0.723934781	 1.196164722	 1.167921969
H	 0.829157386	 1.646560617	 2.061675160
C	 0.328498734	 -0.129872376	 1.220030956
O	 0.125879065	 -0.721205555	 2.262306996
C	 -4.242667339	 -2.187435023	 -0.000452937
C	 -5.089647837	 -1.980994001	 -1.253252245
H	 -5.429615960	 -2.937144427	 -1.653501057
H	 -5.969723583	 -1.375177562	 -1.032033873
H	 -4.514927842	 -1.475131727	 -2.030425148
C	 -5.071204994	 -2.897223619	 1.066953649
H	 -4.483416738	 -3.055985696	 1.972149586
H	 -5.950086117	 -2.307883660	 1.332645920
H	 -5.411889495	 -3.870044662	 0.709850418
C	 -3.786812492	 -0.831472475	 0.533567779
H	 -3.173751045	 -0.955064379	 1.428241171
H	 -4.646015431	 -0.210837673	 0.794301563
H	 -3.201490454	 -0.296365965	 -0.216778295
C	 -3.023031893	 -3.038263827	 -0.346908001
H	 -2.424426213	 -2.565338097	 -1.127242663
H	 -2.393536448	 -3.184623281	 0.532953172
H	 -3.329549005	 -4.020694330	 -0.709067438
