29
0  1  0  1  0  1  12  17 77.03793 79.51192 76.06904 73.59505 75.84287 74.49958 105.51529 105.51074 105.40698 68.37643 -74.89045 198.37701 -20.83662 -34.27351
N	 -1.556215341	 -0.257884140	 -0.029903140
H	 -1.863410766	 -1.220981036	 -0.037118895
C	 -1.415543185	 0.351139151	 -1.284587045
O	 -1.633739964	 -0.278131477	 -2.305879964
C	 -1.006205121	 1.742581442	 -1.205920370
H	 -0.854450272	 2.290398847	 -2.119793879
C	 -0.832340555	 2.320966761	 -0.000015493
H	 -0.534936034	 3.353115328	 0.110970081
N	 -1.026944704	 1.633802023	 1.167901312
H	 -0.921722099	 2.084197918	 2.061654503
C	 -1.422380751	 0.307764925	 1.220010299
O	 -1.625000420	 -0.283568254	 2.262286339
C	 -4.422242577	 2.186892594	 -0.000452937
C	 -4.666949657	 3.023619733	 -1.253252245
H	 -5.664984277	 2.839965551	 -1.653501057
H	 -4.582335104	 4.088695906	 -1.032033873
H	 -3.941500080	 2.778828754	 -2.030425148
C	 -5.451206361	 2.549532953	 1.066953649
H	 -5.294804224	 1.961112353	 1.972149586
H	 -5.380263546	 3.605336312	 1.332645920
H	 -6.464036348	 2.358163864	 0.709850418
C	 -3.020017141	 2.470091990	 0.533567779
H	 -2.820520146	 1.877369251	 1.428241171
H	 -2.912133105	 3.524500963	 0.794301563
H	 -2.263940290	 2.230741491	 -0.216778295
C	 -4.549264213	 0.705242912	 -0.346908001
H	 -3.840395677	 0.423298052	 -1.127242663
H	 -4.361267496	 0.086904138	 0.532953172
H	 -5.553332542	 0.479479266	 -0.709067438
