29
0  1  0  1  0  1  12  17 -1.93646 -1.72873 -1.98536 -2.19308 -2.04470 -2.13219  2.60242  2.59796  2.59391 -2.12089 -2.38482  5.72775 -0.46940 -4.99442
N	 -3.896831248	 -0.914168849	 0.029890229
H	 -3.589635823	 -1.877265745	 0.037105984
C	 -4.037503404	 -0.305145558	 1.284574134
O	 -3.819306625	 -0.934416186	 2.305867053
C	 -4.446841468	 1.086296733	 1.205907459
H	 -4.598596317	 1.634114138	 2.119780968
C	 -4.620706034	 1.664682052	 0.000002582
H	 -4.918110555	 2.696830619	 -0.110982992
N	 -4.426101885	 0.977517314	 -1.167914223
H	 -4.531324490	 1.427913209	 -2.061667414
C	 -4.030665838	 -0.348519784	 -1.220023210
O	 -3.828046169	 -0.939852963	 -2.262299250
C	 0.585305817	 -0.000315929	 0.000452937
C	 0.830012897	 0.836411210	 1.253252245
H	 1.828047517	 0.652757028	 1.653501057
H	 0.745398344	 1.901487383	 1.032033873
H	 0.104563319	 0.591620231	 2.030425148
C	 1.614269600	 0.362324430	 -1.066953649
H	 1.457867464	 -0.226096170	 -1.972149586
H	 1.543326785	 1.418127789	 -1.332645920
H	 2.627099587	 0.170955341	 -0.709850418
C	 -0.816919620	 0.282883467	 -0.533567779
H	 -1.016416614	 -0.309839272	 -1.428241171
H	 -0.924803656	 1.337292440	 -0.794301563
H	 -1.572996470	 0.043532968	 0.216778295
C	 0.712327452	 -1.481965611	 0.346908001
H	 0.003458917	 -1.763910471	 1.127242663
H	 0.524330735	 -2.100304385	 -0.532953172
H	 1.716395781	 -1.707729257	 0.709067438
