29
0  1  0  1  0  1  12  17 12.00963 13.05692 11.54857 10.50128 11.37613 10.85866 28.21652 28.20779 28.18006 11.07638 -18.12068 51.27963 -4.25281 -17.82977
N	 -3.225316341	 -0.914095404	 0.029898126
H	 -2.918120916	 -1.877192300	 0.037113881
C	 -3.365988497	 -0.305072113	 1.284582031
O	 -3.147791718	 -0.934342741	 2.305874950
C	 -3.775326561	 1.086370178	 1.205915356
H	 -3.927081410	 1.634187583	 2.119788865
C	 -3.949191127	 1.664755497	 0.000010479
H	 -4.246595648	 2.696904064	 -0.110975095
N	 -3.754586978	 0.977590759	 -1.167906326
H	 -3.859809583	 1.427986654	 -2.061659517
C	 -3.359150931	 -0.348446339	 -1.220015313
O	 -3.156531262	 -0.939779518	 -2.262291353
C	 0.223329299	 -0.000313171	 0.000436969
C	 1.395572742	 0.601960247	 0.770249938
H	 2.264698519	 -0.056106250	 0.730627455
H	 1.682694152	 1.566650546	 0.349039341
H	 1.134074407	 0.752689829	 1.818628041
C	 0.618376724	 -0.200739300	 -1.460178728
H	 -0.206316440	 -0.632125419	 -2.029272143
H	 0.889499743	 0.749084638	 -1.923506684
H	 1.473685584	 -0.872884786	 -1.541644235
C	 -0.972721201	 0.946057418	 0.074343039
H	 -1.826337118	 0.532492966	 -0.465901429
H	 -0.727428642	 1.913144393	 -0.368346127
H	 -1.268247608	 1.116812231	 1.111390305
C	 -0.149750075	 -1.346970253	 0.615886295
H	 -0.413319851	 -1.236707397	 1.669111231
H	 -0.998426743	 -1.788468981	 0.089893828
H	 0.686622364	 -2.044521470	 0.551192139
