29
0  1  0  1  0  1  12  17 13.46916 14.43219 13.12358 12.16056 12.96184 12.48483 28.42944 28.41368 28.38104 12.77418 -18.22644 52.52212 -5.09548 -16.42603
N	 -3.222156197	 -0.914095404	 0.029897820
H	 -2.914960772	 -1.877192300	 0.037113575
C	 -3.362828353	 -0.305072113	 1.284581725
O	 -3.144631574	 -0.934342741	 2.305874644
C	 -3.772166417	 1.086370178	 1.205915050
H	 -3.923921266	 1.634187583	 2.119788559
C	 -3.946030983	 1.664755497	 0.000010173
H	 -4.243435504	 2.696904064	 -0.110975401
N	 -3.751426834	 0.977590759	 -1.167906632
H	 -3.856649439	 1.427986654	 -2.061659823
C	 -3.355990787	 -0.348446339	 -1.220015619
O	 -3.153371118	 -0.939779518	 -2.262291659
C	 0.238677191	 -0.000313171	 0.000347540
C	 0.158121326	 0.601960247	 1.400446626
H	 0.626998291	 -0.056106250	 2.133320387
H	 0.666461108	 1.566650546	 1.438495763
H	 -0.880549912	 0.752689829	 1.698171476
C	 1.701131202	 -0.200739300	 -0.387839202
H	 1.781633975	 -0.632125419	 -1.386591140
H	 2.237946492	 0.749084638	 -0.384703758
H	 2.199336831	 -0.872884786	 0.312147245
C	 -0.423352593	 0.946057418	 -0.998509542
H	 -0.382295118	 0.532492966	 -2.007884845
H	 0.082673750	 1.913144393	 -1.007424537
H	 -1.469225074	 1.116812231	 -0.735919285
C	 -0.480857247	 -1.346970253	 -0.015024012
H	 -1.524761685	 -1.236707397	 0.283330334
H	 -0.449672742	 -1.788468981	 -1.012995799
H	 -0.006644245	 -2.044521470	 0.676948689
