29
0  1  0  1  0  1  12  17 13.38139 14.55677 13.37896 12.20358 13.21108 12.61229 28.78482 28.77637 28.73767 12.93164 -23.85745 59.49128 -5.00753 -17.69465
N	 -1.114048880	 -0.914095404	 0.407543578
H	 -1.421244305	 -1.877192300	 0.400327823
C	 -0.973376724	 -0.305072113	 -0.847140327
O	 -1.191573503	 -0.934342741	 -1.868433246
C	 -0.564038660	 1.086370178	 -0.768473652
H	 -0.412283811	 1.634187583	 -1.682347161
C	 -0.390174094	 1.664755497	 0.437431225
H	 -0.092769573	 2.696904064	 0.548416799
N	 -0.584778243	 0.977590759	 1.605348030
H	 -0.479555638	 1.427986654	 2.499101221
C	 -0.980214290	 -0.348446339	 1.657457017
O	 -1.182833959	 -0.939779518	 2.699733057
C	 -4.422487220	 -0.000313171	 2.186771554
C	 -5.594730663	 0.601960247	 1.416958585
H	 -6.463856441	 -0.056106250	 1.456581068
H	 -5.881852074	 1.566650546	 1.838169182
H	 -5.333232328	 0.752689829	 0.368580482
C	 -4.817534646	 -0.200739300	 3.647387251
H	 -3.992841482	 -0.632125419	 4.216480666
H	 -5.088657665	 0.749084638	 4.110715207
H	 -5.672843506	 -0.872884786	 3.728852758
C	 -3.226436720	 0.946057418	 2.112865484
H	 -2.372820804	 0.532492966	 2.653109952
H	 -3.471729280	 1.913144393	 2.555554650
H	 -2.930910313	 1.116812231	 1.075818218
C	 -4.049407847	 -1.346970253	 1.571322228
H	 -3.785838070	 -1.236707397	 0.518097292
H	 -3.200731179	 -1.788468981	 2.097314695
H	 -4.885780286	 -2.044521470	 1.636016384
