29
0  1  0  1  0  1  12  17 -0.94574 -0.50882 -1.00043 -1.43736 -1.10226 -1.30418  6.06772  6.05621  6.03678 -0.90152 -6.36562 15.60889 -2.28838 -7.85641
N	 -0.681119580	 -0.914144342	 -0.248613586
H	 -0.988315005	 -1.877241238	 -0.255829341
C	 -0.540447424	 -0.305121051	 -1.503297491
O	 -0.758644203	 -0.934391679	 -2.524590410
C	 -0.131109360	 1.086321240	 -1.424630816
H	 0.020645489	 1.634138645	 -2.338504325
C	 0.042755206	 1.664706559	 -0.218725939
H	 0.340159727	 2.696855126	 -0.107740365
N	 -0.151848943	 0.977541821	 0.949190866
H	 -0.046626338	 1.427937716	 1.842944057
C	 -0.547284990	 -0.348495277	 1.001299853
O	 -0.749904659	 -0.939828456	 2.043575893
C	 -4.514930429	 -0.000313171	 -2.187556063
C	 -4.434374564	 0.601960247	 -3.587655149
H	 -4.903251530	 -0.056106250	 -4.320528910
H	 -4.942714347	 1.566650546	 -3.625704286
H	 -3.395703326	 0.752689829	 -3.885379999
C	 -5.977384441	 -0.200739300	 -1.799369321
H	 -6.057887214	 -0.632125419	 -0.800617383
H	 -6.514199731	 0.749084638	 -1.802504765
H	 -6.475590070	 -0.872884786	 -2.499355768
C	 -3.852900645	 0.946057418	 -1.188698981
H	 -3.893958121	 0.532492966	 -0.179323678
H	 -4.358926989	 1.913144393	 -1.179783986
H	 -2.807028164	 1.116812231	 -1.451289238
C	 -3.795395992	 -1.346970253	 -2.172184511
H	 -2.751491553	 -1.236707397	 -2.470538857
H	 -3.826580497	 -1.788468981	 -1.174212724
H	 -4.269608994	 -2.044521470	 -2.864157212
