29
0  1  0  1  0  1  12  17 -1.54680 -1.50091 -1.58473 -1.63062 -1.60561 -1.62027  0.04489  0.04393  0.04346 -1.62613 -0.33807  0.51333 -0.07254 -1.72885
N	 -4.640755425	 -0.914242140	 0.029882483
H	 -4.333560000	 -1.877339036	 0.037098238
C	 -4.781427581	 -0.305218849	 1.284566388
O	 -4.563230802	 -0.934489477	 2.305859307
C	 -5.190765645	 1.086223442	 1.205899713
H	 -5.342520494	 1.634040847	 2.119773222
C	 -5.364630211	 1.664608761	 -0.000005164
H	 -5.662034732	 2.696757328	 -0.110990738
N	 -5.170026062	 0.977444023	 -1.167921969
H	 -5.275248667	 1.427839918	 -2.061675160
C	 -4.774590015	 -0.348593075	 -1.220030956
O	 -4.571970346	 -0.939926254	 -2.262306996
C	 0.585305817	 -0.000315929	 0.000452937
C	 0.830012897	 0.836411210	 1.253252245
H	 1.828047517	 0.652757028	 1.653501057
H	 0.745398344	 1.901487383	 1.032033873
H	 0.104563319	 0.591620231	 2.030425148
C	 1.614269600	 0.362324430	 -1.066953649
H	 1.457867464	 -0.226096170	 -1.972149586
H	 1.543326785	 1.418127789	 -1.332645920
H	 2.627099587	 0.170955341	 -0.709850418
C	 -0.816919620	 0.282883467	 -0.533567779
H	 -1.016416614	 -0.309839272	 -1.428241171
H	 -0.924803656	 1.337292440	 -0.794301563
H	 -1.572996470	 0.043532968	 0.216778295
C	 0.712327452	 -1.481965611	 0.346908001
H	 0.003458917	 -1.763910471	 1.127242663
H	 0.524330735	 -2.100304385	 -0.532953172
H	 1.716395781	 -1.707729257	 0.709067438
