29
0  1  0  1  0  1  12  17 -2.80075 -2.62200 -2.76468 -2.94343 -2.82278 -2.89357  0.97944  0.97742  0.97496 -2.89946 -1.98766  3.80819 -0.49360 -4.22638
N	 -0.229611072	 -0.914193279	 -0.029887647
H	 -0.536806497	 -1.877290175	 -0.037103402
C	 -0.088938916	 -0.305169988	 -1.284571552
O	 -0.307135695	 -0.934440616	 -2.305864471
C	 0.320399148	 1.086272303	 -1.205904877
H	 0.472153997	 1.634089708	 -2.119778386
C	 0.494263714	 1.664657622	 0.000000000
H	 0.791668235	 2.696806189	 0.110985574
N	 0.299659565	 0.977492884	 1.167916805
H	 0.404882170	 1.427888779	 2.061669996
C	 -0.095776482	 -0.348544214	 1.220025792
O	 -0.298396151	 -0.939877393	 2.262301832
C	 -4.422487220	 -0.000313171	 2.186771554
C	 -5.594730663	 0.601960247	 1.416958585
H	 -6.463856441	 -0.056106250	 1.456581068
H	 -5.881852074	 1.566650546	 1.838169182
H	 -5.333232328	 0.752689829	 0.368580482
C	 -4.817534646	 -0.200739300	 3.647387251
H	 -3.992841482	 -0.632125419	 4.216480666
H	 -5.088657665	 0.749084638	 4.110715207
H	 -5.672843506	 -0.872884786	 3.728852758
C	 -3.226436720	 0.946057418	 2.112865484
H	 -2.372820804	 0.532492966	 2.653109952
H	 -3.471729280	 1.913144393	 2.555554650
H	 -2.930910313	 1.116812231	 1.075818218
C	 -4.049407847	 -1.346970253	 1.571322228
H	 -3.785838070	 -1.236707397	 0.518097292
H	 -3.200731179	 -1.788468981	 2.097314695
H	 -4.885780286	 -2.044521470	 1.636016384
