29
0  1  0  1  0  1  12  17 -1.98718 -1.77920 -2.10549 -2.31346 -2.16779 -2.25297  2.50382  2.49822  2.49594 -2.09385 -2.35132  5.71350 -0.59331 -4.86271
N	 -0.450711783	 -0.804808422	 -0.029890229
H	 -0.757907208	 -1.767905318	 -0.037105984
C	 -0.310039627	 -0.195785131	 -1.284574134
O	 -0.528236406	 -0.825055759	 -2.305867053
C	 0.099298437	 1.195657160	 -1.205907459
H	 0.251053286	 1.743474565	 -2.119780968
C	 0.273163003	 1.774042479	 -0.000002582
H	 0.570567524	 2.806191046	 0.110982992
N	 0.078558854	 1.086877741	 1.167914223
H	 0.183781459	 1.537273636	 2.061667414
C	 -0.316877193	 -0.239159357	 1.220023210
O	 -0.519496862	 -0.830492536	 2.262299250
C	 -4.422242577	 2.186892594	 -0.000452937
C	 -4.666949657	 3.023619733	 -1.253252245
H	 -5.664984277	 2.839965551	 -1.653501057
H	 -4.582335104	 4.088695906	 -1.032033873
H	 -3.941500080	 2.778828754	 -2.030425148
C	 -5.451206361	 2.549532953	 1.066953649
H	 -5.294804224	 1.961112353	 1.972149586
H	 -5.380263546	 3.605336312	 1.332645920
H	 -6.464036348	 2.358163864	 0.709850418
C	 -3.020017141	 2.470091990	 0.533567779
H	 -2.820520146	 1.877369251	 1.428241171
H	 -2.912133105	 3.524500963	 0.794301563
H	 -2.263940290	 2.230741491	 -0.216778295
C	 -4.549264213	 0.705242912	 -0.346908001
H	 -3.840395677	 0.423298052	 -1.127242663
H	 -4.361267496	 0.086904138	 0.532953172
H	 -5.553332542	 0.479479266	 -0.709067438
