29
0  1  0  1  0  1  12  17 -1.94817 -1.88464 -2.02323 -2.08675 -2.05463 -2.07339  0.29271  0.29152  0.29106 -2.05948 -0.34567  0.80721 -0.11429 -2.40674
N	 -4.604550790	 -0.914242216	 0.029882407
H	 -4.297355365	 -1.877339112	 0.037098162
C	 -4.745222946	 -0.305218925	 1.284566312
O	 -4.527026167	 -0.934489553	 2.305859231
C	 -5.154561010	 1.086223366	 1.205899637
H	 -5.306315859	 1.634040771	 2.119773146
C	 -5.328425576	 1.664608685	 -0.000005240
H	 -5.625830097	 2.696757252	 -0.110990814
N	 -5.133821427	 0.977443947	 -1.167922045
H	 -5.239044032	 1.427839842	 -2.061675236
C	 -4.738385380	 -0.348593151	 -1.220031032
O	 -4.535765711	 -0.939926330	 -2.262307072
C	 0.223329299	 -0.000313171	 0.000436969
C	 1.395572742	 0.601960247	 0.770249938
H	 2.264698519	 -0.056106250	 0.730627455
H	 1.682694152	 1.566650546	 0.349039341
H	 1.134074407	 0.752689829	 1.818628041
C	 0.618376724	 -0.200739300	 -1.460178728
H	 -0.206316440	 -0.632125419	 -2.029272143
H	 0.889499743	 0.749084638	 -1.923506684
H	 1.473685584	 -0.872884786	 -1.541644235
C	 -0.972721201	 0.946057418	 0.074343039
H	 -1.826337118	 0.532492966	 -0.465901429
H	 -0.727428642	 1.913144393	 -0.368346127
H	 -1.268247608	 1.116812231	 1.111390305
C	 -0.149750075	 -1.346970253	 0.615886295
H	 -0.413319851	 -1.236707397	 1.669111231
H	 -0.998426743	 -1.788468981	 0.089893828
H	 0.686622364	 -2.044521470	 0.551192139
