29
0  1  0  1  0  1  12  17 -3.33484 -3.17952 -3.41598 -3.57130 -3.47464 -3.53080  0.61671  0.61152  0.61084 -3.49368 -1.37096  2.49041 -0.27828 -4.33485
N	 0.699619844	 -0.846580601	 0.599981583
H	 0.482728456	 -1.807168506	 0.828467315
C	 -0.358917632	 -0.083003755	 0.088729651
O	 -1.457233058	 -0.584071076	 -0.082341534
C	 0.006663944	 1.295607267	 -0.186296720
H	 -0.736204961	 1.956142443	 -0.598773756
C	 1.257080639	 1.722267060	 0.084599103
H	 1.575388786	 2.738202693	 -0.096101271
N	 2.207668355	 0.890933656	 0.613147662
H	 3.128874497	 1.228233426	 0.837493676
C	 1.976321750	 -0.438846388	 0.922377646
O	 2.817344868	 -1.159591485	 1.422653191
C	 -0.638592112	 -0.030600083	 4.773585912
C	 -1.955338297	 0.710688717	 4.988458816
H	 -2.662409700	 0.092482533	 5.543321157
H	 -1.795838737	 1.630873265	 5.552643833
H	 -2.413048072	 0.972185737	 4.033305161
C	 -0.023155497	 -0.384038005	 6.124863354
H	 0.920006676	 -0.916411315	 5.994081523
H	 0.173865455	 0.515703735	 6.709665497
H	 -0.694449518	 -1.021775012	 6.701600102
C	 0.326532160	 0.862877739	 3.997796819
H	 1.275102641	 0.350283032	 3.827442823
H	 0.531822359	 1.781014188	 4.551223192
H	 -0.095863228	 1.141364348	 3.030332380
C	 -0.899909306	 -1.310634476	 3.983221018
H	 -1.363647707	 -1.088800772	 3.020596380
H	 0.032666994	 -1.849033396	 3.803584338
H	 -1.570417114	 -1.972448439	 4.533405940
