29
0  1  0  1  0  1  12  17 80.49640 82.94629 79.16806 76.71817 78.91719 77.60147 111.71440 111.69958 111.59429 73.37873 -69.56353 203.04169 -24.03452 -36.06491
N	 -2.760831308	 -0.914046467	 0.029902906
H	 -2.453635883	 -1.877143363	 0.037118661
C	 -2.901503464	 -0.305023176	 1.284586811
O	 -2.683306685	 -0.934293804	 2.305879730
C	 -3.310841528	 1.086419115	 1.205920136
H	 -3.462596377	 1.634236520	 2.119793645
C	 -3.484706094	 1.664804434	 0.000015259
H	 -3.782110615	 2.696953001	 -0.110970315
N	 -3.290101945	 0.977639696	 -1.167901546
H	 -3.395324550	 1.428035591	 -2.061654737
C	 -2.894665898	 -0.348397402	 -1.220010533
O	 -2.692046229	 -0.939730581	 -2.262286573
C	 0.238677191	 -0.000313171	 0.000347540
C	 0.158121326	 0.601960247	 1.400446626
H	 0.626998291	 -0.056106250	 2.133320387
H	 0.666461108	 1.566650546	 1.438495763
H	 -0.880549912	 0.752689829	 1.698171476
C	 1.701131202	 -0.200739300	 -0.387839202
H	 1.781633975	 -0.632125419	 -1.386591140
H	 2.237946492	 0.749084638	 -0.384703758
H	 2.199336831	 -0.872884786	 0.312147245
C	 -0.423352593	 0.946057418	 -0.998509542
H	 -0.382295118	 0.532492966	 -2.007884845
H	 0.082673750	 1.913144393	 -1.007424537
H	 -1.469225074	 1.116812231	 -0.735919285
C	 -0.480857247	 -1.346970253	 -0.015024012
H	 -1.524761685	 -1.236707397	 0.283330334
H	 -0.449672742	 -1.788468981	 -1.012995799
H	 -0.006644245	 -2.044521470	 0.676948689
