23
0  1  0  1  0  1   6  17 -0.97958 -0.81500 -0.86691 -1.03149 -0.94799 -0.99744  1.49072  1.48836  1.48557 -0.88301 -0.83190  2.77458 -0.28797 -2.53771
C	 -3.592236216	 0.666188690	 0.000002559
H	 -2.794045597	 1.228381530	 -0.463306154
H	 -4.391313685	 1.228111828	 0.462116711
C	 -3.592207011	 -0.666185526	 0.000160778
H	 -2.793913267	 -1.228422528	 -0.463081332
H	 -4.391166729	 -1.228108481	 0.462395661
C	 0.831298551	 -2.532941771	 -0.284638017
H	 0.422015677	 -2.563003383	 -1.294782249
H	 1.917238173	 -2.569472844	 -0.370429605
H	 0.506170582	 -3.433655205	 0.233778250
C	 0.388139761	 -1.270865523	 0.443602417
H	 0.791993231	 -1.270698158	 1.458653162
H	 -0.699398235	 -1.262069776	 0.543606043
C	 0.831076311	 -0.000219381	 -0.268880891
H	 1.920791399	 -0.000780321	 -0.367155623
H	 0.433666043	 -0.000656784	 -1.288629196
C	 0.389298906	 1.271628498	 0.442131805
H	 0.793385667	 1.272474530	 1.456997618
H	 -0.698209507	 1.263841220	 0.542370016
C	 0.833265097	 2.532439358	 -0.287890143
H	 0.423810199	 2.561494751	 -1.298004663
H	 0.509018956	 3.434074857	 0.229402658
H	 1.919265282	 2.567960385	 -0.373988982
