23
0  1  0  1  0  1   6  17 -1.09759 -1.00076 -1.01372 -1.11054 -1.08097 -1.09852  0.50110  0.49936  0.49829 -1.08886 -0.21958  0.87116 -0.09401 -1.64644
C	 -4.029700316	 0.666188686	 -0.000002623
H	 -3.231509697	 1.228381526	 -0.463311336
H	 -4.828777785	 1.228111824	 0.462111529
C	 -4.029671111	 -0.666185530	 0.000155596
H	 -3.231377367	 -1.228422532	 -0.463086514
H	 -4.828630829	 -1.228108485	 0.462390479
C	 0.296294313	 -2.532941771	 -0.290680608
H	 -0.783157691	 -2.563003383	 -0.441303358
H	 0.764966429	 -2.569472844	 -1.274027702
H	 0.582691985	 -3.433655205	 0.250096606
C	 0.705389634	 -1.270865523	 0.457226379
H	 1.786376100	 -1.270698158	 0.615004387
H	 0.248226316	 -1.262069776	 1.449063724
C	 0.309829264	 -0.000219381	 -0.282609580
H	 0.769578394	 -0.000780321	 -1.275467895
H	 -0.772003807	 -0.000656784	 -0.448316344
C	 0.704695619	 1.271628498	 0.455487224
H	 1.785638575	 1.272474530	 0.612970730
H	 0.247750250	 1.263841220	 1.447416242
C	 0.294461162	 2.532439358	 -0.294009750
H	 -0.785051122	 2.561494751	 -0.444468667
H	 0.580326799	 3.434074857	 0.245442046
H	 0.762897473	 2.567960385	 -1.277562918
