23
0  1  0  1  0  1   6  17 -1.70485 -1.56355 -1.74399 -1.88528 -1.82404 -1.85970  0.84395  0.84509  0.84448 -1.66067 -0.63184  1.74190 -0.18510 -2.58563
C	 0.161388226	 0.666188686	 0.095404535
H	 -0.636802393	 1.228381526	 0.558713248
H	 0.960465695	 1.228111824	 -0.366709617
C	 0.161359021	 -0.666185530	 0.095246316
H	 -0.636934723	 -1.228422532	 0.558488426
H	 0.960318739	 -1.228108485	 -0.366988567
C	 -3.399933154	 -2.532941771	 -1.623401505
H	 -2.990650280	 -2.563003383	 -0.613257272
H	 -4.485872776	 -2.569472844	 -1.537609916
H	 -3.074805185	 -3.433655205	 -2.141817771
C	 -2.956774364	 -1.270865523	 -2.351641939
H	 -3.360627834	 -1.270698158	 -3.366692683
H	 -1.869236368	 -1.262069776	 -2.451645564
C	 -3.399710915	 -0.000219381	 -1.639158630
H	 -4.489426002	 -0.000780321	 -1.540883899
H	 -3.002300646	 -0.000656784	 -0.619410326
C	 -2.957933509	 1.271628498	 -2.350171326
H	 -3.362020270	 1.272474530	 -3.365037140
H	 -1.870425096	 1.263841220	 -2.450409538
C	 -3.401899700	 2.532439358	 -1.620149378
H	 -2.992444802	 2.561494751	 -0.610034858
H	 -3.077653559	 3.434074857	 -2.137442180
H	 -4.487899885	 2.567960385	 -1.534050540
