23
0  1  0  1  0  1   6  17 -0.78250 -0.48877 -0.71059 -1.00432 -0.82437 -0.93067  3.64998  3.64385  3.63849 -0.58188 -2.17621  6.93745 -0.75909 -4.58404
C	 -0.374442589	 0.856992580	 -0.000005991
H	 -1.172633208	 1.419185420	 0.463302722
H	 0.424634880	 1.418915718	 -0.462120143
C	 -0.374471794	 -0.475381636	 -0.000164210
H	 -1.172765538	 -1.037618638	 0.463077900
H	 0.424487924	 -1.037304591	 -0.462399093
C	 -5.015719367	 -0.282531103	 0.332160363
H	 -4.286382734	 -0.738325964	 1.002329493
H	 -5.811290773	 0.134609813	 0.949427869
H	 -5.446710936	 -1.073752292	 -0.279365278
C	 -4.367649508	 0.800625713	 -0.520093748
H	 -5.109985794	 1.229407024	 -1.197226744
H	 -3.590900978	 0.362326194	 -1.150468426
C	 -3.756014528	 1.914713876	 0.318403172
H	 -4.531027107	 2.361519880	 0.948369130
H	 -3.016611559	 1.487314304	 1.002825975
C	 -3.096635063	 3.002624395	 -0.518240588
H	 -3.838726906	 3.432048234	 -1.195096783
H	 -2.328301811	 2.550035011	 -1.148803632
C	 -2.483095500	 4.104256143	 0.335960060
H	 -1.724084212	 3.699591049	 1.006017446
H	 -2.013087498	 4.874015892	 -0.274151718
H	 -3.242553234	 4.583745419	 0.953523934
