23
0  1  0  1  0  1   6  17 25.49616 26.80727 25.24864 23.93753 25.01998 24.37745 40.90439 40.89502 40.85535 24.85790 -24.49361 75.20447 -8.60920 -17.24376
C	 -1.123245386	 1.238600364	 -0.000017973
H	 -1.921436005	 1.800793204	 0.463290740
H	 -0.324167917	 1.800523502	 -0.462132125
C	 -1.123274591	 -0.093773852	 -0.000176192
H	 -1.921568335	 -0.656010854	 0.463065918
H	 -0.324314873	 -0.655696807	 -0.462411075
C	 -5.015719367	 -0.282531103	 0.332160363
H	 -4.286382734	 -0.738325964	 1.002329493
H	 -5.811290773	 0.134609813	 0.949427869
H	 -5.446710936	 -1.073752292	 -0.279365278
C	 -4.367649508	 0.800625713	 -0.520093748
H	 -5.109985794	 1.229407024	 -1.197226744
H	 -3.590900978	 0.362326194	 -1.150468426
C	 -3.756014528	 1.914713876	 0.318403172
H	 -4.531027107	 2.361519880	 0.948369130
H	 -3.016611559	 1.487314304	 1.002825975
C	 -3.096635063	 3.002624395	 -0.518240588
H	 -3.838726906	 3.432048234	 -1.195096783
H	 -2.328301811	 2.550035011	 -1.148803632
C	 -2.483095500	 4.104256143	 0.335960060
H	 -1.724084212	 3.699591049	 1.006017446
H	 -2.013087498	 4.874015892	 -0.274151718
H	 -3.242553234	 4.583745419	 0.953523934
