23
0  1  0  1  0  1   6  17 -0.58086 -0.54721 -0.55834 -0.59199 -0.58185 -0.58775  0.08716  0.08706  0.08697 -0.58355 -0.06393  0.19129 -0.02368 -0.68723
C	 -4.318931022	 0.666188621	 -0.000005991
H	 -3.520740403	 1.228381461	 -0.463314704
H	 -5.118008491	 1.228111759	 0.462108161
C	 -4.318901817	 -0.666185595	 0.000152228
H	 -3.520608073	 -1.228422597	 -0.463089882
H	 -5.117861535	 -1.228108550	 0.462387111
C	 -0.048383789	 -2.196613215	 -0.332160363
H	 -0.807782034	 -1.792886594	 -1.002329493
H	 0.710656544	 -2.677027806	 -0.949427869
H	 -0.518105654	 -2.965473457	 0.279365278
C	 0.565622600	 -1.093789847	 0.520093748
H	 1.308126251	 -1.522281273	 1.197226744
H	 -0.202330183	 -0.640255647	 1.150468426
C	 1.224633762	 -0.007054334	 -0.318403172
H	 1.999085401	 -0.454831914	 -0.948369130
H	 0.484793390	 0.419587634	 -1.002825975
C	 1.837102176	 1.107940293	 0.518240588
H	 2.580040050	 0.679981825	 1.195096783
H	 1.060981646	 1.547041716	 1.148803632
C	 2.484373473	 2.190097014	 -0.335960060
H	 1.754417579	 2.645087524	 -1.006017446
H	 2.916000970	 2.982015759	 0.274151718
H	 3.279352234	 1.772131961	 -0.953523934
