23
0  1  0  1  0  1   6  17 -1.53683 -1.42616 -1.50390 -1.61457 -1.57089 -1.59646  0.43344  0.43250  0.43174 -1.51202 -0.29598  0.88122 -0.09537 -2.00189
C	 0.666428890	 0.208560476	 0.038932518
H	 1.228910333	 -0.305133315	 0.805455402
H	 1.228064068	 0.721957829	 -0.728414202
C	 -0.665945067	 0.207723127	 0.038807601
H	 -1.227893202	 -0.306749200	 0.805299035
H	 -1.228155761	 0.720395445	 -0.728552390
C	 -2.532764928	 -0.397981112	 4.211823937
H	 -2.562258371	 -1.011001895	 3.310634058
H	 -2.568898877	 -1.072201731	 5.067440951
H	 -3.433936285	 0.213035316	 4.229069882
C	 -1.271328442	 0.454694304	 4.247641874
H	 -1.271734307	 1.074787875	 5.147035818
H	 -1.262940095	 1.141602620	 3.398581462
C	 -0.000054181	 -0.382863267	 4.220698667
H	 -0.000208236	 -1.069535974	 5.072530681
H	 0.000086886	 -1.010441104	 3.324056175
C	 1.271166226	 0.454723162	 4.248103204
H	 1.271439228	 1.074533913	 5.147588614
H	 1.262971401	 1.141797812	 3.399195577
C	 2.532617606	 -0.398001350	 4.212279020
H	 2.562241077	 -1.010857849	 3.310969842
H	 3.433795716	 0.212934818	 4.229857059
H	 2.568535967	 -1.072457431	 5.067784731
