23
0  1  0  1  0  1   6  17 -1.02999 -0.91731 -0.95183 -1.06450 -1.01439 -1.04402  0.73898  0.73815  0.73661 -0.98730 -0.41275  1.38601 -0.14325 -1.81730
C	 -3.816037853	 0.666188688	 -0.000000000
H	 -3.017847234	 1.228381528	 -0.463308713
H	 -4.615115322	 1.228111826	 0.462114152
C	 -3.816008648	 -0.666185528	 0.000158219
H	 -3.017714904	 -1.228422530	 -0.463083891
H	 -4.614968366	 -1.228108483	 0.462393102
C	 0.831298551	 -2.532941771	 -0.284638017
H	 0.422015677	 -2.563003383	 -1.294782249
H	 1.917238173	 -2.569472844	 -0.370429605
H	 0.506170582	 -3.433655205	 0.233778250
C	 0.388139761	 -1.270865523	 0.443602417
H	 0.791993231	 -1.270698158	 1.458653162
H	 -0.699398235	 -1.262069776	 0.543606043
C	 0.831076311	 -0.000219381	 -0.268880891
H	 1.920791399	 -0.000780321	 -0.367155623
H	 0.433666043	 -0.000656784	 -1.288629196
C	 0.389298906	 1.271628498	 0.442131805
H	 0.793385667	 1.272474530	 1.456997618
H	 -0.698209507	 1.263841220	 0.542370016
C	 0.833265097	 2.532439358	 -0.287890143
H	 0.423810199	 2.561494751	 -1.298004663
H	 0.509018956	 3.434074857	 0.229402658
H	 1.919265282	 2.567960385	 -0.373988982
