23
0  1  0  1  0  1   6  17 -1.25541 -1.15757 -1.22374 -1.32158 -1.27989 -1.30435  0.50767  0.50623  0.50537 -1.23150 -0.30998  0.99175 -0.11096 -1.80231
C	 0.187159509	 0.570786742	 0.000002995
H	 -0.611031110	 1.132979582	 0.463311708
H	 0.986236978	 1.132709880	 -0.462111157
C	 0.187130304	 -0.761587474	 -0.000155224
H	 -0.611163440	 -1.323824476	 0.463086886
H	 0.986090022	 -1.323510429	 -0.462390107
C	 -5.015719367	 -0.282531103	 0.332160363
H	 -4.286382734	 -0.738325964	 1.002329493
H	 -5.811290773	 0.134609813	 0.949427869
H	 -5.446710936	 -1.073752292	 -0.279365278
C	 -4.367649508	 0.800625713	 -0.520093748
H	 -5.109985794	 1.229407024	 -1.197226744
H	 -3.590900978	 0.362326194	 -1.150468426
C	 -3.756014528	 1.914713876	 0.318403172
H	 -4.531027107	 2.361519880	 0.948369130
H	 -3.016611559	 1.487314304	 1.002825975
C	 -3.096635063	 3.002624395	 -0.518240588
H	 -3.838726906	 3.432048234	 -1.195096783
H	 -2.328301811	 2.550035011	 -1.148803632
C	 -2.483095500	 4.104256143	 0.335960060
H	 -1.724084212	 3.699591049	 1.006017446
H	 -2.013087498	 4.874015892	 -0.274151718
H	 -3.242553234	 4.583745419	 0.953523934
