23
0  1  0  1  0  1   6  17  4.38603  5.00277  4.40741  3.79067  4.24561  3.97555 12.67672 12.66853 12.65182  4.74802 -7.53343 23.73706 -2.65847 -8.79714
C	 -0.748843987	 1.047796472	 -0.000011982
H	 -1.547034606	 1.609989312	 0.463296731
H	 0.050233482	 1.609719610	 -0.462126134
C	 -0.748873192	 -0.284577744	 -0.000170201
H	 -1.547166936	 -0.846814746	 0.463071909
H	 0.050086526	 -0.846500699	 -0.462405084
C	 -5.015719367	 -0.282531103	 0.332160363
H	 -4.286382734	 -0.738325964	 1.002329493
H	 -5.811290773	 0.134609813	 0.949427869
H	 -5.446710936	 -1.073752292	 -0.279365278
C	 -4.367649508	 0.800625713	 -0.520093748
H	 -5.109985794	 1.229407024	 -1.197226744
H	 -3.590900978	 0.362326194	 -1.150468426
C	 -3.756014528	 1.914713876	 0.318403172
H	 -4.531027107	 2.361519880	 0.948369130
H	 -3.016611559	 1.487314304	 1.002825975
C	 -3.096635063	 3.002624395	 -0.518240588
H	 -3.838726906	 3.432048234	 -1.195096783
H	 -2.328301811	 2.550035011	 -1.148803632
C	 -2.483095500	 4.104256143	 0.335960060
H	 -1.724084212	 3.699591049	 1.006017446
H	 -2.013087498	 4.874015892	 -0.274151718
H	 -3.242553234	 4.583745419	 0.953523934
