23
0  1  0  1  0  1   6  17 31.47231 32.53911 31.48755 30.42074 31.32078 30.78518 44.30622 44.30084 44.26465 30.09227 -19.63983 77.04418 -12.26011 -15.05198
C	 -2.307358345	 0.666188888	 0.000017973
H	 -1.509167726	 1.228381728	 -0.463290740
H	 -3.106435814	 1.228112026	 0.462132125
C	 -2.307329140	 -0.666185328	 0.000176192
H	 -1.509035396	 -1.228422330	 -0.463065918
H	 -3.106288858	 -1.228108283	 0.462411075
C	 -0.048383789	 -2.196613215	 -0.332160363
H	 -0.807782034	 -1.792886594	 -1.002329493
H	 0.710656544	 -2.677027806	 -0.949427869
H	 -0.518105654	 -2.965473457	 0.279365278
C	 0.565622600	 -1.093789847	 0.520093748
H	 1.308126251	 -1.522281273	 1.197226744
H	 -0.202330183	 -0.640255647	 1.150468426
C	 1.224633762	 -0.007054334	 -0.318403172
H	 1.999085401	 -0.454831914	 -0.948369130
H	 0.484793390	 0.419587634	 -1.002825975
C	 1.837102176	 1.107940293	 0.518240588
H	 2.580040050	 0.679981825	 1.195096783
H	 1.060981646	 1.547041716	 1.148803632
C	 2.484373473	 2.190097014	 -0.335960060
H	 1.754417579	 2.645087524	 -1.006017446
H	 2.916000970	 2.982015759	 0.274151718
H	 3.279352234	 1.772131961	 -0.953523934
