23
0  1  0  1  0  1   6  17 -1.89377 -1.68113 -1.77067 -1.98331 -1.88184 -1.94185  1.23942  1.23359  1.23039 -1.78103 -0.79172  2.43346 -0.23666 -3.18612
C	 -0.000041190	 0.666188688	 0.000000000
H	 -0.798231809	 1.228381528	 0.463308713
H	 0.799036279	 1.228111826	 -0.462114152
C	 -0.000070395	 -0.666185528	 -0.000158219
H	 -0.798364139	 -1.228422530	 0.463083891
H	 0.798889323	 -1.228108483	 -0.462393102
C	 -3.278391658	 -2.532941771	 2.198720129
H	 -2.198939654	 -2.563003383	 2.349342880
H	 -3.747063774	 -2.569472844	 3.182067224
H	 -3.564789330	 -3.433655205	 1.657942916
C	 -3.687486979	 -1.270865523	 1.450813142
H	 -4.768473445	 -1.270698158	 1.293035135
H	 -3.230323661	 -1.262069776	 0.458975798
C	 -3.291926610	 -0.000219381	 2.190649102
H	 -3.751675739	 -0.000780321	 3.183507416
H	 -2.210093538	 -0.000656784	 2.356355865
C	 -3.686792964	 1.271628498	 1.452552298
H	 -4.767735920	 1.272474530	 1.295068791
H	 -3.229847595	 1.263841220	 0.460623279
C	 -3.276558507	 2.532439358	 2.202049272
H	 -2.197046223	 2.561494751	 2.352508188
H	 -3.562424144	 3.434074857	 1.662597475
H	 -3.744994818	 2.567960385	 3.185602439
