23
0  1  0  1  0  1   6  17  4.38942  5.00606  4.41079  3.79416  4.24907  3.97902 12.67933 12.67114 12.65443  4.75104 -7.53353 23.74176 -2.66049 -8.79671
C	 -0.748901841	 0.284580917	 -0.000011982
H	 -1.547092460	 0.846773757	 0.463296731
H	 0.050175628	 0.846504055	 -0.462126134
C	 -0.748931046	 -1.047793299	 -0.000170201
H	 -1.547224790	 -1.610030301	 0.463071909
H	 0.050028672	 -1.609716254	 -0.462405084
C	 -2.483066818	 -4.104652737	 0.332160363
H	 -1.723668573	 -3.700926116	 1.002329493
H	 -3.242107151	 -4.585067327	 0.949427869
H	 -2.013344953	 -4.873512979	 -0.279365278
C	 -3.097073207	 -3.001829368	 -0.520093748
H	 -3.839576858	 -3.430320794	 -1.197226744
H	 -2.329120424	 -2.548295168	 -1.150468426
C	 -3.756084369	 -1.915093856	 0.318403172
H	 -4.530536008	 -2.362871435	 0.948369130
H	 -3.016243997	 -1.488451887	 1.002825975
C	 -4.368552783	 -0.800099229	 -0.518240588
H	 -5.111490658	 -1.228057697	 -1.195096783
H	 -3.592432253	 -0.360997806	 -1.148803632
C	 -5.015824080	 0.282057493	 0.335960060
H	 -4.285868185	 0.737048003	 1.006017446
H	 -5.447451577	 1.073976237	 -0.274151718
H	 -5.810802841	 -0.135907560	 0.953523934
