23
0  1  0  1  0  1   6  17 -0.22624 -0.04184 -0.09520 -0.27960 -0.16613 -0.23307  2.61527  2.61329  2.61011 -0.11386 -1.33799  4.77603 -0.59219 -2.95972
C	 -3.313144684	 0.666188755	 0.000005991
H	 -2.514954065	 1.228381595	 -0.463302722
H	 -4.112222153	 1.228111893	 0.462120143
C	 -3.313115479	 -0.666185461	 0.000164210
H	 -2.514821735	 -1.228422463	 -0.463077900
H	 -4.112075197	 -1.228108416	 0.462399093
C	 -0.048383789	 -2.196613215	 -0.332160363
H	 -0.807782034	 -1.792886594	 -1.002329493
H	 0.710656544	 -2.677027806	 -0.949427869
H	 -0.518105654	 -2.965473457	 0.279365278
C	 0.565622600	 -1.093789847	 0.520093748
H	 1.308126251	 -1.522281273	 1.197226744
H	 -0.202330183	 -0.640255647	 1.150468426
C	 1.224633762	 -0.007054334	 -0.318403172
H	 1.999085401	 -0.454831914	 -0.948369130
H	 0.484793390	 0.419587634	 -1.002825975
C	 1.837102176	 1.107940293	 0.518240588
H	 2.580040050	 0.679981825	 1.195096783
H	 1.060981646	 1.547041716	 1.148803632
C	 2.484373473	 2.190097014	 -0.335960060
H	 1.754417579	 2.645087524	 -1.006017446
H	 2.916000970	 2.982015759	 0.274151718
H	 3.279352234	 1.772131961	 -0.953523934
