23
0  1  0  1  0  1   6  17 -0.50474 -0.26391 -0.35393 -0.59476 -0.45455 -0.53766  2.97051  2.96510  2.96023 -0.31399 -1.65772  5.49622 -0.57967 -3.57281
C	 -3.368434578	 0.666188692	 0.000005119
H	 -2.570243959	 1.228381532	 -0.463303594
H	 -4.167512047	 1.228111830	 0.462119271
C	 -3.368405373	 -0.666185524	 0.000163338
H	 -2.570111629	 -1.228422526	 -0.463078772
H	 -4.167365091	 -1.228108479	 0.462398221
C	 0.831298551	 -2.532941771	 -0.284638017
H	 0.422015677	 -2.563003383	 -1.294782249
H	 1.917238173	 -2.569472844	 -0.370429605
H	 0.506170582	 -3.433655205	 0.233778250
C	 0.388139761	 -1.270865523	 0.443602417
H	 0.791993231	 -1.270698158	 1.458653162
H	 -0.699398235	 -1.262069776	 0.543606043
C	 0.831076311	 -0.000219381	 -0.268880891
H	 1.920791399	 -0.000780321	 -0.367155623
H	 0.433666043	 -0.000656784	 -1.288629196
C	 0.389298906	 1.271628498	 0.442131805
H	 0.793385667	 1.272474530	 1.456997618
H	 -0.698209507	 1.263841220	 0.542370016
C	 0.833265097	 2.532439358	 -0.287890143
H	 0.423810199	 2.561494751	 -1.298004663
H	 0.509018956	 3.434074857	 0.229402658
H	 1.919265282	 2.567960385	 -0.373988982
