23
0  1  0  1  0  1   6  17 -1.05391 -0.98617 -1.03599 -1.10373 -1.07827 -1.09318  0.25759  0.25671  0.25625 -1.04901 -0.15821  0.50853 -0.05918 -1.34015
C	 0.374389136	 0.856992574	 0.000005991
H	 -0.423801483	 1.419185414	 0.463314704
H	 1.173466605	 1.418915712	 -0.462108161
C	 0.374359931	 -0.475381642	 -0.000152228
H	 -0.423933813	 -1.037618644	 0.463089882
H	 1.173319649	 -1.037304597	 -0.462387111
C	 -2.483066818	 -4.104652737	 0.332160363
H	 -1.723668573	 -3.700926116	 1.002329493
H	 -3.242107151	 -4.585067327	 0.949427869
H	 -2.013344953	 -4.873512979	 -0.279365278
C	 -3.097073207	 -3.001829368	 -0.520093748
H	 -3.839576858	 -3.430320794	 -1.197226744
H	 -2.329120424	 -2.548295168	 -1.150468426
C	 -3.756084369	 -1.915093856	 0.318403172
H	 -4.530536008	 -2.362871435	 0.948369130
H	 -3.016243997	 -1.488451887	 1.002825975
C	 -4.368552783	 -0.800099229	 -0.518240588
H	 -5.111490658	 -1.228057697	 -1.195096783
H	 -3.592432253	 -0.360997806	 -1.148803632
C	 -5.015824080	 0.282057493	 0.335960060
H	 -4.285868185	 0.737048003	 1.006017446
H	 -5.447451577	 1.073976237	 -0.274151718
H	 -5.810802841	 -0.135907560	 0.953523934
