23
0  1  0  1  0  1   6  17 19.27058 20.67935 18.81627 17.40750 18.55681 17.87560 37.51587 37.50474 37.46501 20.82238 -25.82288 71.13225 -6.00561 -18.48138
C	 -0.968617683	 0.666188700	 -0.572427212
H	 -1.766808302	 1.228381540	 -0.109118499
H	 -0.169540214	 1.228111838	 -1.034541364
C	 -0.968646888	 -0.666185516	 -0.572585431
H	 -1.766940632	 -1.228422518	 -0.109343321
H	 -0.169687170	 -1.228108471	 -1.034820314
C	 -3.399933154	 -2.532941771	 -1.623401505
H	 -2.990650280	 -2.563003383	 -0.613257272
H	 -4.485872776	 -2.569472844	 -1.537609916
H	 -3.074805185	 -3.433655205	 -2.141817771
C	 -2.956774364	 -1.270865523	 -2.351641939
H	 -3.360627834	 -1.270698158	 -3.366692683
H	 -1.869236368	 -1.262069776	 -2.451645564
C	 -3.399710915	 -0.000219381	 -1.639158630
H	 -4.489426002	 -0.000780321	 -1.540883899
H	 -3.002300646	 -0.000656784	 -0.619410326
C	 -2.957933509	 1.271628498	 -2.350171326
H	 -3.362020270	 1.272474530	 -3.365037140
H	 -1.870425096	 1.263841220	 -2.450409538
C	 -3.401899700	 2.532439358	 -1.620149378
H	 -2.992444802	 2.561494751	 -0.610034858
H	 -3.077653559	 3.434074857	 -2.137442180
H	 -4.487899885	 2.567960385	 -1.534050540
