23
0  1  0  1  0  1   6  17 -0.83210 -0.75404 -0.76885 -0.84691 -0.81276 -0.83268  0.51788  0.51767  0.51726 -0.80722 -0.29184  0.99019 -0.11550 -1.39007
C	 -3.816037853	 0.666188688	 -0.000000000
H	 -3.017847234	 1.228381528	 -0.463308713
H	 -4.615115322	 1.228111826	 0.462114152
C	 -3.816008648	 -0.666185528	 0.000158219
H	 -3.017714904	 -1.228422530	 -0.463083891
H	 -4.614968366	 -1.228108483	 0.462393102
C	 2.482641298	 -2.190570624	 -0.332160363
H	 1.753304665	 -2.646365485	 -1.002329493
H	 3.278212704	 -1.773429709	 -0.949427869
H	 2.913632867	 -2.981791813	 0.279365278
C	 1.834571439	 -1.107413809	 0.520093748
H	 2.576907725	 -0.678632498	 1.197226744
H	 1.057822909	 -1.545713328	 1.150468426
C	 1.222936459	 0.006674355	 -0.318403172
H	 1.997949038	 0.453480358	 -0.948369130
H	 0.483533490	 -0.420725218	 -1.002825975
C	 0.563556994	 1.094584874	 0.518240588
H	 1.305648836	 1.524008713	 1.195096783
H	 -0.204776258	 0.641995490	 1.148803632
C	 -0.049982569	 2.196216621	 -0.335960060
H	 -0.808993856	 1.791551528	 -1.006017446
H	 -0.519990571	 2.965976371	 0.274151718
H	 0.709475165	 2.675705897	 -0.953523934
