23
0  1  0  1  0  1   6  17 -1.69901 -1.54897 -1.61030 -1.76034 -1.69643 -1.73413  0.64121  0.63781  0.63603 -1.63959 -0.42462  1.28610 -0.12679 -2.37428
C	 0.171922188	 0.666188686	 -0.095399353
H	 -0.626268431	 1.228381526	 0.367909360
H	 0.970999657	 1.228111824	 -0.557513505
C	 0.171892983	 -0.666185530	 -0.095557572
H	 -0.626400761	 -1.228422532	 0.367684538
H	 0.970852701	 -1.228108485	 -0.557792455
C	 -3.278391658	 -2.532941771	 2.198720129
H	 -2.198939654	 -2.563003383	 2.349342880
H	 -3.747063774	 -2.569472844	 3.182067224
H	 -3.564789330	 -3.433655205	 1.657942916
C	 -3.687486979	 -1.270865523	 1.450813142
H	 -4.768473445	 -1.270698158	 1.293035135
H	 -3.230323661	 -1.262069776	 0.458975798
C	 -3.291926610	 -0.000219381	 2.190649102
H	 -3.751675739	 -0.000780321	 3.183507416
H	 -2.210093538	 -0.000656784	 2.356355865
C	 -3.686792964	 1.271628498	 1.452552298
H	 -4.767735920	 1.272474530	 1.295068791
H	 -3.229847595	 1.263841220	 0.460623279
C	 -3.276558507	 2.532439358	 2.202049272
H	 -2.197046223	 2.561494751	 2.352508188
H	 -3.562424144	 3.434074857	 1.662597475
H	 -3.744994818	 2.567960385	 3.185602439
