23
0  1  0  1  0  1   6  17 20.76312 21.99629 20.93362 19.70045 20.71654 20.10948 35.20286 35.18888 35.14234 20.85102 -20.85175 64.35712 -6.85015 -15.80420
C	 -2.534063075	 0.666188700	 0.000015736
H	 -1.735872456	 1.228381540	 -0.463292977
H	 -3.333140544	 1.228111838	 0.462129888
C	 -2.534033870	 -0.666185516	 0.000173955
H	 -1.735740126	 -1.228422518	 -0.463068155
H	 -3.332993588	 -1.228108471	 0.462408838
C	 0.296294313	 -2.532941771	 -0.290680608
H	 -0.783157691	 -2.563003383	 -0.441303358
H	 0.764966429	 -2.569472844	 -1.274027702
H	 0.582691985	 -3.433655205	 0.250096606
C	 0.705389634	 -1.270865523	 0.457226379
H	 1.786376100	 -1.270698158	 0.615004387
H	 0.248226316	 -1.262069776	 1.449063724
C	 0.309829264	 -0.000219381	 -0.282609580
H	 0.769578394	 -0.000780321	 -1.275467895
H	 -0.772003807	 -0.000656784	 -0.448316344
C	 0.704695619	 1.271628498	 0.455487224
H	 1.785638575	 1.272474530	 0.612970730
H	 0.247750250	 1.263841220	 1.447416242
C	 0.294461162	 2.532439358	 -0.294009750
H	 -0.785051122	 2.561494751	 -0.444468667
H	 0.580326799	 3.434074857	 0.245442046
H	 0.762897473	 2.567960385	 -1.277562918
