23
0  1  0  1  0  1   6  17 -1.43051 -1.32511 -1.37050 -1.47590 -1.43565 -1.45931  0.32777  0.32591  0.32497 -1.40266 -0.22593  0.67363 -0.06796 -1.78240
C	 0.343885566	 0.666188684	 -0.190798707
H	 -0.454305053	 1.228381524	 0.272510006
H	 1.142963035	 1.228111822	 -0.652912859
C	 0.343856361	 -0.666185532	 -0.190956926
H	 -0.454437383	 -1.228422534	 0.272285184
H	 1.142816079	 -1.228108487	 -0.653191809
C	 -3.278391658	 -2.532941771	 2.198720129
H	 -2.198939654	 -2.563003383	 2.349342880
H	 -3.747063774	 -2.569472844	 3.182067224
H	 -3.564789330	 -3.433655205	 1.657942916
C	 -3.687486979	 -1.270865523	 1.450813142
H	 -4.768473445	 -1.270698158	 1.293035135
H	 -3.230323661	 -1.262069776	 0.458975798
C	 -3.291926610	 -0.000219381	 2.190649102
H	 -3.751675739	 -0.000780321	 3.183507416
H	 -2.210093538	 -0.000656784	 2.356355865
C	 -3.686792964	 1.271628498	 1.452552298
H	 -4.767735920	 1.272474530	 1.295068791
H	 -3.229847595	 1.263841220	 0.460623279
C	 -3.276558507	 2.532439358	 2.202049272
H	 -2.197046223	 2.561494751	 2.352508188
H	 -3.562424144	 3.434074857	 1.662597475
H	 -3.744994818	 2.567960385	 3.185602439
