23
0  1  0  1  0  1   6  17  5.53996  5.99310  5.71733  5.26420  5.60926  5.40350 11.65423 11.65034 11.63546  5.69586 -5.62282 20.88301 -2.94221 -6.62212
C	 -2.810634861	 0.666188568	 0.000011982
H	 -2.012444242	 1.228381408	 -0.463296731
H	 -3.609712330	 1.228111706	 0.462126134
C	 -2.810605656	 -0.666185648	 0.000170201
H	 -2.012311912	 -1.228422650	 -0.463071909
H	 -3.609565374	 -1.228108603	 0.462405084
C	 2.482641298	 -2.190570624	 -0.332160363
H	 1.753304665	 -2.646365485	 -1.002329493
H	 3.278212704	 -1.773429709	 -0.949427869
H	 2.913632867	 -2.981791813	 0.279365278
C	 1.834571439	 -1.107413809	 0.520093748
H	 2.576907725	 -0.678632498	 1.197226744
H	 1.057822909	 -1.545713328	 1.150468426
C	 1.222936459	 0.006674355	 -0.318403172
H	 1.997949038	 0.453480358	 -0.948369130
H	 0.483533490	 -0.420725218	 -1.002825975
C	 0.563556994	 1.094584874	 0.518240588
H	 1.305648836	 1.524008713	 1.195096783
H	 -0.204776258	 0.641995490	 1.148803632
C	 -0.049982569	 2.196216621	 -0.335960060
H	 -0.808993856	 1.791551528	 -1.006017446
H	 -0.519990571	 2.965976371	 0.274151718
H	 0.709475165	 2.675705897	 -0.953523934
