23
0  1  0  1  0  1   6  17 -1.22452 -1.08670 -1.10529 -1.24311 -1.19309 -1.22264  0.94775  0.94558  0.94410 -1.18450 -0.44866  1.68288 -0.17729 -2.24143
C	 -3.816037853	 0.666188688	 -0.000000000
H	 -3.017847234	 1.228381528	 -0.463308713
H	 -4.615115322	 1.228111826	 0.462114152
C	 -3.816008648	 -0.666185528	 0.000158219
H	 -3.017714904	 -1.228422530	 -0.463083891
H	 -4.614968366	 -1.228108483	 0.462393102
C	 0.296294313	 -2.532941771	 -0.290680608
H	 -0.783157691	 -2.563003383	 -0.441303358
H	 0.764966429	 -2.569472844	 -1.274027702
H	 0.582691985	 -3.433655205	 0.250096606
C	 0.705389634	 -1.270865523	 0.457226379
H	 1.786376100	 -1.270698158	 0.615004387
H	 0.248226316	 -1.262069776	 1.449063724
C	 0.309829264	 -0.000219381	 -0.282609580
H	 0.769578394	 -0.000780321	 -1.275467895
H	 -0.772003807	 -0.000656784	 -0.448316344
C	 0.704695619	 1.271628498	 0.455487224
H	 1.785638575	 1.272474530	 0.612970730
H	 0.247750250	 1.263841220	 1.447416242
C	 0.294461162	 2.532439358	 -0.294009750
H	 -0.785051122	 2.561494751	 -0.444468667
H	 0.580326799	 3.434074857	 0.245442046
H	 0.762897473	 2.567960385	 -1.277562918
