23
0  1  0  1  0  1   6  17 -1.39427 -1.25310 -1.34639 -1.48757 -1.41935 -1.45943  0.99150  0.98897  0.98744 -1.33598 -0.59970  1.91684 -0.21030 -2.44281
C	 -0.000041190	 0.666188688	 0.000000000
H	 -0.798231809	 1.228381528	 0.463308713
H	 0.799036279	 1.228111826	 -0.462114152
C	 -0.000070395	 -0.666185528	 -0.000158219
H	 -0.798364139	 -1.228422530	 0.463083891
H	 0.798889323	 -1.228108483	 -0.462393102
C	 -2.483066818	 -4.104652737	 0.332160363
H	 -1.723668573	 -3.700926116	 1.002329493
H	 -3.242107151	 -4.585067327	 0.949427869
H	 -2.013344953	 -4.873512979	 -0.279365278
C	 -3.097073207	 -3.001829368	 -0.520093748
H	 -3.839576858	 -3.430320794	 -1.197226744
H	 -2.329120424	 -2.548295168	 -1.150468426
C	 -3.756084369	 -1.915093856	 0.318403172
H	 -4.530536008	 -2.362871435	 0.948369130
H	 -3.016243997	 -1.488451887	 1.002825975
C	 -4.368552783	 -0.800099229	 -0.518240588
H	 -5.111490658	 -1.228057697	 -1.195096783
H	 -3.592432253	 -0.360997806	 -1.148803632
C	 -5.015824080	 0.282057493	 0.335960060
H	 -4.285868185	 0.737048003	 1.006017446
H	 -5.447451577	 1.073976237	 -0.274151718
H	 -5.810802841	 -0.135907560	 0.953523934
