23
0  1  0  1  0  1   6  17 24.89231 26.06976 24.90109 23.72365 24.71555 24.12261 38.97187 38.95711 38.91089 25.01264 -22.33500 71.08461 -8.52440 -15.21257
C	 -2.473228028	 0.666188700	 0.000015356
H	 -1.675037409	 1.228381540	 -0.463293357
H	 -3.272305497	 1.228111838	 0.462129508
C	 -2.473198823	 -0.666185516	 0.000173575
H	 -1.674905079	 -1.228422518	 -0.463068535
H	 -3.272158541	 -1.228108471	 0.462408458
C	 0.831298551	 -2.532941771	 -0.284638017
H	 0.422015677	 -2.563003383	 -1.294782249
H	 1.917238173	 -2.569472844	 -0.370429605
H	 0.506170582	 -3.433655205	 0.233778250
C	 0.388139761	 -1.270865523	 0.443602417
H	 0.791993231	 -1.270698158	 1.458653162
H	 -0.699398235	 -1.262069776	 0.543606043
C	 0.831076311	 -0.000219381	 -0.268880891
H	 1.920791399	 -0.000780321	 -0.367155623
H	 0.433666043	 -0.000656784	 -1.288629196
C	 0.389298906	 1.271628498	 0.442131805
H	 0.793385667	 1.272474530	 1.456997618
H	 -0.698209507	 1.263841220	 0.542370016
C	 0.833265097	 2.532439358	 -0.287890143
H	 0.423810199	 2.561494751	 -1.298004663
H	 0.509018956	 3.434074857	 0.229402658
H	 1.919265282	 2.567960385	 -0.373988982
