23
0  1  0  1  0  1   6  17 25.50850 26.81946 25.26091 23.94995 25.03231 24.38985 40.91601 40.90664 40.86699 24.86844 -24.49399 75.22518 -8.61809 -17.24466
C	 -1.123332167	 0.093777031	 -0.000017973
H	 -1.921522786	 0.655969871	 0.463290740
H	 -0.324254698	 0.655700169	 -0.462132125
C	 -1.123361372	 -1.238597185	 -0.000176192
H	 -1.921655116	 -1.800834187	 0.463065918
H	 -0.324401654	 -1.800520140	 -0.462411075
C	 -2.483066818	 -4.104652737	 0.332160363
H	 -1.723668573	 -3.700926116	 1.002329493
H	 -3.242107151	 -4.585067327	 0.949427869
H	 -2.013344953	 -4.873512979	 -0.279365278
C	 -3.097073207	 -3.001829368	 -0.520093748
H	 -3.839576858	 -3.430320794	 -1.197226744
H	 -2.329120424	 -2.548295168	 -1.150468426
C	 -3.756084369	 -1.915093856	 0.318403172
H	 -4.530536008	 -2.362871435	 0.948369130
H	 -3.016243997	 -1.488451887	 1.002825975
C	 -4.368552783	 -0.800099229	 -0.518240588
H	 -5.111490658	 -1.228057697	 -1.195096783
H	 -3.592432253	 -0.360997806	 -1.148803632
C	 -5.015824080	 0.282057493	 0.335960060
H	 -4.285868185	 0.737048003	 1.006017446
H	 -5.447451577	 1.073976237	 -0.274151718
H	 -5.810802841	 -0.135907560	 0.953523934
