23
0  1  0  1  0  1   6  17  2.93253  3.65084  2.78744  2.06913  2.58578  2.28071 13.33847 13.32996 13.31484  3.89083 -9.07217 25.61725 -2.27582 -10.37843
C	 -0.645758852	 0.666188696	 -0.381618141
H	 -1.443949471	 1.228381536	 0.081690572
H	 0.153318617	 1.228111834	 -0.843732293
C	 -0.645788057	 -0.666185520	 -0.381776360
H	 -1.444081801	 -1.228422522	 0.081465750
H	 0.153171661	 -1.228108475	 -0.844011243
C	 -3.399933154	 -2.532941771	 -1.623401505
H	 -2.990650280	 -2.563003383	 -0.613257272
H	 -4.485872776	 -2.569472844	 -1.537609916
H	 -3.074805185	 -3.433655205	 -2.141817771
C	 -2.956774364	 -1.270865523	 -2.351641939
H	 -3.360627834	 -1.270698158	 -3.366692683
H	 -1.869236368	 -1.262069776	 -2.451645564
C	 -3.399710915	 -0.000219381	 -1.639158630
H	 -4.489426002	 -0.000780321	 -1.540883899
H	 -3.002300646	 -0.000656784	 -0.619410326
C	 -2.957933509	 1.271628498	 -2.350171326
H	 -3.362020270	 1.272474530	 -3.365037140
H	 -1.870425096	 1.263841220	 -2.450409538
C	 -3.401899700	 2.532439358	 -1.620149378
H	 -2.992444802	 2.561494751	 -0.610034858
H	 -3.077653559	 3.434074857	 -2.137442180
H	 -4.487899885	 2.567960385	 -1.534050540
