23
0  1  0  1  0  1   6  17 -1.81191 -1.53909 -1.85189 -2.12472 -1.97808 -2.06407  2.63782  2.63720  2.63433 -1.60132 -1.83853  5.19961 -0.50156 -4.46083
C	 -0.161470606	 0.666188690	 -0.095404535
H	 -0.959661225	 1.228381530	 0.367904178
H	 0.637606863	 1.228111828	 -0.557518687
C	 -0.161499811	 -0.666185526	 -0.095562754
H	 -0.959793555	 -1.228422528	 0.367679356
H	 0.637459907	 -1.228108481	 -0.557797637
C	 -3.399933154	 -2.532941771	 -1.623401505
H	 -2.990650280	 -2.563003383	 -0.613257272
H	 -4.485872776	 -2.569472844	 -1.537609916
H	 -3.074805185	 -3.433655205	 -2.141817771
C	 -2.956774364	 -1.270865523	 -2.351641939
H	 -3.360627834	 -1.270698158	 -3.366692683
H	 -1.869236368	 -1.262069776	 -2.451645564
C	 -3.399710915	 -0.000219381	 -1.639158630
H	 -4.489426002	 -0.000780321	 -1.540883899
H	 -3.002300646	 -0.000656784	 -0.619410326
C	 -2.957933509	 1.271628498	 -2.350171326
H	 -3.362020270	 1.272474530	 -3.365037140
H	 -1.870425096	 1.263841220	 -2.450409538
C	 -3.401899700	 2.532439358	 -1.620149378
H	 -2.992444802	 2.561494751	 -0.610034858
H	 -3.077653559	 3.434074857	 -2.137442180
H	 -4.487899885	 2.567960385	 -1.534050540
