23
0  1  0  1  0  1   6  17 -1.33123 -1.12773 -1.26792 -1.47142 -1.36023 -1.42569  1.91483  1.91060  1.90781 -1.21639 -1.14844  3.66810 -0.40003 -3.33602
C	 -0.187256353	 0.570786745	 -0.000002995
H	 -0.985446972	 1.132979585	 0.463305718
H	 0.611821116	 1.132709883	 -0.462117147
C	 -0.187285558	 -0.761587471	 -0.000161214
H	 -0.985579302	 -1.323824473	 0.463080896
H	 0.611674160	 -1.323510426	 -0.462396097
C	 -2.483066818	 -4.104652737	 0.332160363
H	 -1.723668573	 -3.700926116	 1.002329493
H	 -3.242107151	 -4.585067327	 0.949427869
H	 -2.013344953	 -4.873512979	 -0.279365278
C	 -3.097073207	 -3.001829368	 -0.520093748
H	 -3.839576858	 -3.430320794	 -1.197226744
H	 -2.329120424	 -2.548295168	 -1.150468426
C	 -3.756084369	 -1.915093856	 0.318403172
H	 -4.530536008	 -2.362871435	 0.948369130
H	 -3.016243997	 -1.488451887	 1.002825975
C	 -4.368552783	 -0.800099229	 -0.518240588
H	 -5.111490658	 -1.228057697	 -1.195096783
H	 -3.592432253	 -0.360997806	 -1.148803632
C	 -5.015824080	 0.282057493	 0.335960060
H	 -4.285868185	 0.737048003	 1.006017446
H	 -5.447451577	 1.073976237	 -0.274151718
H	 -5.810802841	 -0.135907560	 0.953523934
