23
0  1  0  1  0  1   6  17 -0.92073 -0.85371 -0.86518 -0.93220 -0.91447 -0.92506  0.26471  0.26331  0.26251 -0.92695 -0.10414  0.44693 -0.05037 -1.21938
C	 -4.243362779	 0.666188684	 -0.000005245
H	 -3.445172160	 1.228381524	 -0.463313958
H	 -5.042440248	 1.228111822	 0.462108907
C	 -4.243333574	 -0.666185532	 0.000152974
H	 -3.445039830	 -1.228422534	 -0.463089136
H	 -5.042293292	 -1.228108487	 0.462387857
C	 0.296294313	 -2.532941771	 -0.290680608
H	 -0.783157691	 -2.563003383	 -0.441303358
H	 0.764966429	 -2.569472844	 -1.274027702
H	 0.582691985	 -3.433655205	 0.250096606
C	 0.705389634	 -1.270865523	 0.457226379
H	 1.786376100	 -1.270698158	 0.615004387
H	 0.248226316	 -1.262069776	 1.449063724
C	 0.309829264	 -0.000219381	 -0.282609580
H	 0.769578394	 -0.000780321	 -1.275467895
H	 -0.772003807	 -0.000656784	 -0.448316344
C	 0.704695619	 1.271628498	 0.455487224
H	 1.785638575	 1.272474530	 0.612970730
H	 0.247750250	 1.263841220	 1.447416242
C	 0.294461162	 2.532439358	 -0.294009750
H	 -0.785051122	 2.561494751	 -0.444468667
H	 0.580326799	 3.434074857	 0.245442046
H	 0.762897473	 2.567960385	 -1.277562918
