23
0  1  0  1  0  1   6  17  3.50298  4.07492  3.77156  3.19963  3.60061  3.36424 11.20720 11.19508 11.18430  3.95279 -6.30468 20.57028 -2.17992 -8.13289
C	 -2.961388001	 0.666188696	 0.000010491
H	 -2.163197382	 1.228381536	 -0.463298222
H	 -3.760465470	 1.228111834	 0.462124643
C	 -2.961358796	 -0.666185520	 0.000168710
H	 -2.163065052	 -1.228422522	 -0.463073400
H	 -3.760318514	 -1.228108475	 0.462403593
C	 0.296294313	 -2.532941771	 -0.290680608
H	 -0.783157691	 -2.563003383	 -0.441303358
H	 0.764966429	 -2.569472844	 -1.274027702
H	 0.582691985	 -3.433655205	 0.250096606
C	 0.705389634	 -1.270865523	 0.457226379
H	 1.786376100	 -1.270698158	 0.615004387
H	 0.248226316	 -1.262069776	 1.449063724
C	 0.309829264	 -0.000219381	 -0.282609580
H	 0.769578394	 -0.000780321	 -1.275467895
H	 -0.772003807	 -0.000656784	 -0.448316344
C	 0.704695619	 1.271628498	 0.455487224
H	 1.785638575	 1.272474530	 0.612970730
H	 0.247750250	 1.263841220	 1.447416242
C	 0.294461162	 2.532439358	 -0.294009750
H	 -0.785051122	 2.561494751	 -0.444468667
H	 0.580326799	 3.434074857	 0.245442046
H	 0.762897473	 2.567960385	 -1.277562918
