23
0  1  0  1  0  1   6  17 -1.32941 -0.90529 -1.21994 -1.64406 -1.38699 -1.53879  4.80298  4.79250  4.78495 -0.96327 -3.02247  9.17420 -0.87208 -6.24292
C	 0.666371870	 0.159061078	 0.800541136
H	 1.228853313	 -0.354632713	 1.567064020
H	 1.228007048	 0.672458431	 0.033194416
C	 -0.666002087	 0.158223729	 0.800416219
H	 -1.227950222	 -0.356248598	 1.566907653
H	 -1.228212781	 0.670896047	 0.033056228
C	 -2.532764928	 -0.397981112	 4.211823937
H	 -2.562258371	 -1.011001895	 3.310634058
H	 -2.568898877	 -1.072201731	 5.067440951
H	 -3.433936285	 0.213035316	 4.229069882
C	 -1.271328442	 0.454694304	 4.247641874
H	 -1.271734307	 1.074787875	 5.147035818
H	 -1.262940095	 1.141602620	 3.398581462
C	 -0.000054181	 -0.382863267	 4.220698667
H	 -0.000208236	 -1.069535974	 5.072530681
H	 0.000086886	 -1.010441104	 3.324056175
C	 1.271166226	 0.454723162	 4.248103204
H	 1.271439228	 1.074533913	 5.147588614
H	 1.262971401	 1.141797812	 3.399195577
C	 2.532617606	 -0.398001350	 4.212279020
H	 2.562241077	 -1.010857849	 3.310969842
H	 3.433795716	 0.212934818	 4.229857059
H	 2.568535967	 -1.072457431	 5.067784731
