23
0  1  0  1  0  1   6  17 23.84455 25.45629 23.56771 21.95597 23.29489 22.50227 43.02912 43.01582 42.97184 24.78525 -27.58164 79.51854 -6.90563 -20.24601
C	 0.666314851	 0.109561680	 1.562149755
H	 1.228796294	 -0.404132111	 2.328672639
H	 1.227950029	 0.622959033	 0.794803035
C	 -0.666059106	 0.108724331	 1.562024838
H	 -1.228007241	 -0.405747996	 2.328516272
H	 -1.228269800	 0.621396649	 0.794664847
C	 -2.532764928	 -0.397981112	 4.211823937
H	 -2.562258371	 -1.011001895	 3.310634058
H	 -2.568898877	 -1.072201731	 5.067440951
H	 -3.433936285	 0.213035316	 4.229069882
C	 -1.271328442	 0.454694304	 4.247641874
H	 -1.271734307	 1.074787875	 5.147035818
H	 -1.262940095	 1.141602620	 3.398581462
C	 -0.000054181	 -0.382863267	 4.220698667
H	 -0.000208236	 -1.069535974	 5.072530681
H	 0.000086886	 -1.010441104	 3.324056175
C	 1.271166226	 0.454723162	 4.248103204
H	 1.271439228	 1.074533913	 5.147588614
H	 1.262971401	 1.141797812	 3.399195577
C	 2.532617606	 -0.398001350	 4.212279020
H	 2.562241077	 -1.010857849	 3.310969842
H	 3.433795716	 0.212934818	 4.229857059
H	 2.568535967	 -1.072457431	 5.067784731
