23
0  1  0  1  0  1   6  17  4.26898  4.79891  4.46663  3.93670  4.32655  4.09418 11.24024 11.22720 11.21064  4.76775 -6.32122 20.64247 -2.30126 -7.25224
C	 -2.920831303	 0.666188696	 0.000010237
H	 -2.122640684	 1.228381536	 -0.463298476
H	 -3.719908772	 1.228111834	 0.462124389
C	 -2.920802098	 -0.666185520	 0.000168456
H	 -2.122508354	 -1.228422522	 -0.463073654
H	 -3.719761816	 -1.228108475	 0.462403339
C	 0.831298551	 -2.532941771	 -0.284638017
H	 0.422015677	 -2.563003383	 -1.294782249
H	 1.917238173	 -2.569472844	 -0.370429605
H	 0.506170582	 -3.433655205	 0.233778250
C	 0.388139761	 -1.270865523	 0.443602417
H	 0.791993231	 -1.270698158	 1.458653162
H	 -0.699398235	 -1.262069776	 0.543606043
C	 0.831076311	 -0.000219381	 -0.268880891
H	 1.920791399	 -0.000780321	 -0.367155623
H	 0.433666043	 -0.000656784	 -1.288629196
C	 0.389298906	 1.271628498	 0.442131805
H	 0.793385667	 1.272474530	 1.456997618
H	 -0.698209507	 1.263841220	 0.542370016
C	 0.833265097	 2.532439358	 -0.287890143
H	 0.423810199	 2.561494751	 -1.298004663
H	 0.509018956	 3.434074857	 0.229402658
H	 1.919265282	 2.567960385	 -0.373988982
