23
0  1  0  1  0  1   6  17 -0.91565 -0.83901 -0.86541 -0.94205 -0.91170 -0.92956  0.36299  0.36261  0.36187 -0.90144 -0.20230  0.68657 -0.07180 -1.31390
C	 -4.039839490	 0.666188686	 -0.000002559
H	 -3.241648871	 1.228381526	 -0.463311272
H	 -4.838916959	 1.228111824	 0.462111593
C	 -4.039810285	 -0.666185530	 0.000155660
H	 -3.241516541	 -1.228422532	 -0.463086450
H	 -4.838770003	 -1.228108485	 0.462390543
C	 0.831298551	 -2.532941771	 -0.284638017
H	 0.422015677	 -2.563003383	 -1.294782249
H	 1.917238173	 -2.569472844	 -0.370429605
H	 0.506170582	 -3.433655205	 0.233778250
C	 0.388139761	 -1.270865523	 0.443602417
H	 0.791993231	 -1.270698158	 1.458653162
H	 -0.699398235	 -1.262069776	 0.543606043
C	 0.831076311	 -0.000219381	 -0.268880891
H	 1.920791399	 -0.000780321	 -0.367155623
H	 0.433666043	 -0.000656784	 -1.288629196
C	 0.389298906	 1.271628498	 0.442131805
H	 0.793385667	 1.272474530	 1.456997618
H	 -0.698209507	 1.263841220	 0.542370016
C	 0.833265097	 2.532439358	 -0.287890143
H	 0.423810199	 2.561494751	 -1.298004663
H	 0.509018956	 3.434074857	 0.229402658
H	 1.919265282	 2.567960385	 -0.373988982
