23
0  1  0  1  0  1   6  17 -0.78136 -0.48777 -0.70949 -1.00308 -0.82327 -0.92948  3.65039  3.64427  3.63891 -0.58089 -2.17611  6.93808 -0.75941 -4.58344
C	 -0.374471516	 0.475384802	 -0.000005991
H	 -1.172662135	 1.037577642	 0.463302722
H	 0.424605953	 1.037307940	 -0.462120143
C	 -0.374500721	 -0.856989414	 -0.000164210
H	 -1.172794465	 -1.419226416	 0.463077900
H	 0.424458997	 -1.418912369	 -0.462399093
C	 -2.483066818	 -4.104652737	 0.332160363
H	 -1.723668573	 -3.700926116	 1.002329493
H	 -3.242107151	 -4.585067327	 0.949427869
H	 -2.013344953	 -4.873512979	 -0.279365278
C	 -3.097073207	 -3.001829368	 -0.520093748
H	 -3.839576858	 -3.430320794	 -1.197226744
H	 -2.329120424	 -2.548295168	 -1.150468426
C	 -3.756084369	 -1.915093856	 0.318403172
H	 -4.530536008	 -2.362871435	 0.948369130
H	 -3.016243997	 -1.488451887	 1.002825975
C	 -4.368552783	 -0.800099229	 -0.518240588
H	 -5.111490658	 -1.228057697	 -1.195096783
H	 -3.592432253	 -0.360997806	 -1.148803632
C	 -5.015824080	 0.282057493	 0.335960060
H	 -4.285868185	 0.737048003	 1.006017446
H	 -5.447451577	 1.073976237	 -0.274151718
H	 -5.810802841	 -0.135907560	 0.953523934
