23
0  1  0  1  0  1   6  17 -1.33191 -1.12836 -1.26862 -1.47217 -1.36098 -1.42645  1.91470  1.91047  1.90767 -1.21703 -1.14854  3.66797 -0.39991 -3.33655
C	 -0.187241889	 0.761590634	 -0.000002995
H	 -0.985432508	 1.323783474	 0.463305718
H	 0.611835580	 1.323513772	 -0.462117147
C	 -0.187271094	 -0.570783582	 -0.000161214
H	 -0.985564838	 -1.133020584	 0.463080896
H	 0.611688624	 -1.132706537	 -0.462396097
C	 -5.015719367	 -0.282531103	 0.332160363
H	 -4.286382734	 -0.738325964	 1.002329493
H	 -5.811290773	 0.134609813	 0.949427869
H	 -5.446710936	 -1.073752292	 -0.279365278
C	 -4.367649508	 0.800625713	 -0.520093748
H	 -5.109985794	 1.229407024	 -1.197226744
H	 -3.590900978	 0.362326194	 -1.150468426
C	 -3.756014528	 1.914713876	 0.318403172
H	 -4.531027107	 2.361519880	 0.948369130
H	 -3.016611559	 1.487314304	 1.002825975
C	 -3.096635063	 3.002624395	 -0.518240588
H	 -3.838726906	 3.432048234	 -1.195096783
H	 -2.328301811	 2.550035011	 -1.148803632
C	 -2.483095500	 4.104256143	 0.335960060
H	 -1.724084212	 3.699591049	 1.006017446
H	 -2.013087498	 4.874015892	 -0.274151718
H	 -3.242553234	 4.583745419	 0.953523934
