23
0  1  0  1  0  1   6  17 -1.39473 -1.25354 -1.34688 -1.48808 -1.41987 -1.45995  0.99148  0.98895  0.98741 -1.33643 -0.59979  1.91688 -0.21027 -2.44326
C	 -0.000041190	 0.666188688	 0.000000000
H	 -0.798231809	 1.228381528	 0.463308713
H	 0.799036279	 1.228111826	 -0.462114152
C	 -0.000070395	 -0.666185528	 -0.000158219
H	 -0.798364139	 -1.228422530	 0.463083891
H	 0.798889323	 -1.228108483	 -0.462393102
C	 -5.015719367	 -0.282531103	 0.332160363
H	 -4.286382734	 -0.738325964	 1.002329493
H	 -5.811290773	 0.134609813	 0.949427869
H	 -5.446710936	 -1.073752292	 -0.279365278
C	 -4.367649508	 0.800625713	 -0.520093748
H	 -5.109985794	 1.229407024	 -1.197226744
H	 -3.590900978	 0.362326194	 -1.150468426
C	 -3.756014528	 1.914713876	 0.318403172
H	 -4.531027107	 2.361519880	 0.948369130
H	 -3.016611559	 1.487314304	 1.002825975
C	 -3.096635063	 3.002624395	 -0.518240588
H	 -3.838726906	 3.432048234	 -1.195096783
H	 -2.328301811	 2.550035011	 -1.148803632
C	 -2.483095500	 4.104256143	 0.335960060
H	 -1.724084212	 3.699591049	 1.006017446
H	 -2.013087498	 4.874015892	 -0.274151718
H	 -3.242553234	 4.583745419	 0.953523934
