21
0  1  0  1  0  1   4  17 19.35269 20.46838 18.71758 17.60189 18.55883 17.99154 32.34404 32.33921 32.30587 19.59883 -20.81934 62.58095 -8.68790 -13.47488
C	 -2.367920952	 0.606018379	 -0.000016055
H	 -2.367973122	 1.667865606	 0.000421176
C	 -2.367584103	 -0.606019729	 -0.000075399
H	 -2.367049055	 -1.667849305	 0.000253858
C	 0.775538806	 2.530333582	 0.294771026
H	 0.375140998	 2.538434551	 1.308938547
H	 1.861583773	 2.582108612	 0.371492889
H	 0.433285801	 3.432940111	 -0.209564142
C	 0.343768835	 1.270074536	 -0.443285872
H	 0.733327843	 1.286995002	 -1.463808563
H	 -0.744837901	 1.244953492	 -0.527732290
C	 0.810992124	 -0.000108591	 0.253468049
H	 1.903335523	 -0.000251131	 0.316474521
H	 0.438897414	 -0.000448655	 1.281335619
C	 0.343539669	 -1.269742489	 -0.444145286
H	 0.733122013	 -1.286101522	 -1.464656932
H	 -0.745043305	 -1.244451643	 -0.528536256
C	 0.775155137	 -2.530537932	 0.293108675
H	 0.374797552	 -2.539183364	 1.307279839
H	 0.432719062	 -3.432724689	 -0.211819466
H	 1.861197168	 -2.582498436	 0.369730107
