21
0  1  0  1  0  1   4  17 -1.72772 -1.52775 -1.88993 -2.08990 -1.97712 -2.04306  1.34816  1.34825  1.34649 -1.60545 -1.17216  2.94081 -0.32390 -3.05021
C	 0.000187118	 0.606018371	 -0.000000000
H	 0.000239287	 1.667865598	 -0.000437231
C	 -0.000149732	 -0.606019737	 0.000059344
H	 -0.000684780	 -1.667849313	 -0.000269913
C	 -3.346044136	 2.530333582	 1.528150373
H	 -2.945646327	 2.538434551	 0.513982851
H	 -4.432089103	 2.582108612	 1.451428509
H	 -3.003791131	 3.432940111	 2.032485541
C	 -2.914274165	 1.270074536	 2.266207270
H	 -3.303833173	 1.286995002	 3.286729962
H	 -1.825667429	 1.244953492	 2.350653689
C	 -3.381497454	 -0.000108591	 1.569453349
H	 -4.473840853	 -0.000251131	 1.506446877
H	 -3.009402743	 -0.000448655	 0.541585779
C	 -2.914044999	 -1.269742489	 2.267066685
H	 -3.303627344	 -1.286101522	 3.287578331
H	 -1.825462025	 -1.244451643	 2.351457655
C	 -3.345660466	 -2.530537932	 1.529812723
H	 -2.945302882	 -2.539183364	 0.515641559
H	 -3.003224393	 -3.432724689	 2.034740865
H	 -4.431702498	 -2.582498436	 1.453191291
