21
0  1  0  1  0  1   4  17  4.57343  5.19105  4.38712  3.76950  4.25154  3.96642 11.87700 11.86763 11.85236  5.14187 -7.91292 22.74312 -2.30208 -7.38625
C	 -2.746497958	 0.606018087	 -0.000012032
H	 -2.746550128	 1.667865314	 0.000425199
C	 -2.746161109	 -0.606020021	 -0.000071376
H	 -2.745626061	 -1.667849597	 0.000257881
C	 2.110084675	 2.195314839	 0.335774618
H	 1.374689385	 2.629249701	 1.013870551
H	 2.917284374	 1.789062530	 0.945240184
H	 2.523081719	 2.999111129	 -0.272118952
C	 1.475715685	 1.106346147	 -0.519286390
H	 2.218244462	 0.697185029	 -1.208305462
H	 0.683266483	 1.534859624	 -1.136722502
C	 0.889338290	 -0.021789847	 0.317731850
H	 1.681241967	 -0.479160239	 0.918468755
H	 0.165017512	 0.396004277	 1.021843922
C	 0.206007436	 -1.093315540	 -0.520145248
H	 0.931909182	 -1.531304893	 -1.209143086
H	 -0.561242010	 -0.621140512	 -1.137521459
C	 -0.419919015	 -2.187777912	 0.334143145
H	 -1.163658915	 -1.768362365	 1.012262345
H	 -0.909199151	 -2.947047428	 -0.274355489
H	 0.335454203	 -2.683891665	 0.943520268
