21
0  1  0  1  0  1   4  17 -1.05025 -0.66317 -1.31765 -1.70473 -1.44841 -1.59937  4.33279  4.32812  4.32154 -0.69531 -3.20979  8.62862 -0.85232 -5.26182
C	 -0.318315456	 0.606018374	 0.182297492
H	 -0.318263287	 1.667865601	 0.181860261
C	 -0.318652306	 -0.606019734	 0.182356836
H	 -0.319187354	 -1.667849310	 0.182027579
C	 -3.346044136	 2.530333582	 1.528150373
H	 -2.945646327	 2.538434551	 0.513982851
H	 -4.432089103	 2.582108612	 1.451428509
H	 -3.003791131	 3.432940111	 2.032485541
C	 -2.914274165	 1.270074536	 2.266207270
H	 -3.303833173	 1.286995002	 3.286729962
H	 -1.825667429	 1.244953492	 2.350653689
C	 -3.381497454	 -0.000108591	 1.569453349
H	 -4.473840853	 -0.000251131	 1.506446877
H	 -3.009402743	 -0.000448655	 0.541585779
C	 -2.914044999	 -1.269742489	 2.267066685
H	 -3.303627344	 -1.286101522	 3.287578331
H	 -1.825462025	 -1.244451643	 2.351457655
C	 -3.345660466	 -2.530537932	 1.529812723
H	 -2.945302882	 -2.539183364	 0.515641559
H	 -3.003224393	 -3.432724689	 2.034740865
H	 -4.431702498	 -2.582498436	 1.453191291
