21
0  1  0  1  0  1   4  17 -0.83844 -0.47649 -0.99315 -1.35510 -1.11242 -1.25570  4.04201  4.03375  4.02668 -0.55236 -2.73704  8.06835 -0.96856 -4.91511
C	 -0.342938683	 0.788310658	 0.000006016
H	 -0.342886514	 1.850157885	 -0.000431215
C	 -0.343275533	 -0.423727450	 0.000065360
H	 -0.343810581	 -1.485557026	 -0.000263897
C	 -2.159192145	 4.010272884	 -0.335774618
H	 -1.415695885	 3.590369312	 -1.013870551
H	 -2.914616814	 4.506202175	 -0.945240184
H	 -1.669582661	 4.769836961	 0.272118952
C	 -2.785082201	 2.916408877	 0.519286390
H	 -3.510690512	 3.354877102	 1.208305462
H	 -2.017754043	 2.444384476	 1.136722502
C	 -3.468887934	 1.844523160	 -0.317731850
H	 -4.260934150	 2.301646666	 -0.918468755
H	 -2.744907219	 1.426140028	 -1.021843922
C	 -4.055190977	 0.716978435	 0.520145248
H	 -4.797451757	 1.126633112	 1.209143086
H	 -3.262650685	 0.288608437	 1.137521459
C	 -4.690059969	 -0.372320959	 -0.334143145
H	 -3.954965501	 -0.806710833	 -1.012262345
H	 -5.102966591	 -1.175684743	 0.274355489
H	 -5.497393691	 0.033794561	 -0.943520268
