21
0  1  0  1  0  1   4  17 -1.06889 -0.98251 -1.11922 -1.20560 -1.15916 -1.18619  0.32925  0.32935  0.32892 -1.03211 -0.44187  0.94303 -0.11746 -1.41582
C	 -3.870912903	 0.606018442	 0.000003008
H	 -3.870965073	 1.667865669	 0.000440239
C	 -3.870576054	 -0.606019666	 -0.000056336
H	 -3.870041006	 -1.667849242	 0.000272921
C	 2.110084675	 2.195314839	 0.335774618
H	 1.374689385	 2.629249701	 1.013870551
H	 2.917284374	 1.789062530	 0.945240184
H	 2.523081719	 2.999111129	 -0.272118952
C	 1.475715685	 1.106346147	 -0.519286390
H	 2.218244462	 0.697185029	 -1.208305462
H	 0.683266483	 1.534859624	 -1.136722502
C	 0.889338290	 -0.021789847	 0.317731850
H	 1.681241967	 -0.479160239	 0.918468755
H	 0.165017512	 0.396004277	 1.021843922
C	 0.206007436	 -1.093315540	 -0.520145248
H	 0.931909182	 -1.531304893	 -1.209143086
H	 -0.561242010	 -0.621140512	 -1.137521459
C	 -0.419919015	 -2.187777912	 0.334143145
H	 -1.163658915	 -1.768362365	 1.012262345
H	 -0.909199151	 -2.947047428	 -0.274355489
H	 0.335454203	 -2.683891665	 0.943520268
