21
0  1  0  1  0  1   4  17 -1.46371 -1.20779 -1.57907 -1.83499 -1.67795 -1.77049  2.16410  2.15850  2.15435 -1.29307 -1.55499  4.48177 -0.56597 -3.65387
C	 -0.171383095	 0.514872230	 0.000003008
H	 -0.171330926	 1.576719457	 -0.000434223
C	 -0.171719945	 -0.697165878	 0.000062352
H	 -0.172254993	 -1.758995454	 -0.000266905
C	 -4.689671955	 0.372393440	 -0.335774618
H	 -3.954276664	 0.806328303	 -1.013870551
H	 -5.496871654	 -0.033858868	 -0.945240184
H	 -5.102669000	 1.176189730	 0.272118952
C	 -4.055302965	 -0.716575252	 0.519286390
H	 -4.797831742	 -1.125736370	 1.208305462
H	 -3.262853763	 -0.288061774	 1.136722502
C	 -3.468925571	 -1.844711246	 -0.317731850
H	 -4.260829247	 -2.302081637	 -0.918468755
H	 -2.744604792	 -1.426917121	 -1.021843922
C	 -2.785594716	 -2.916236938	 0.520145248
H	 -3.511496463	 -3.354226291	 1.209143086
H	 -2.018345270	 -2.444061911	 1.137521459
C	 -2.159668265	 -4.010699310	 -0.334143145
H	 -1.415928365	 -3.591283764	 -1.012262345
H	 -1.670388130	 -4.769968826	 0.274355489
H	 -2.915041483	 -4.506813063	 -0.943520268
