21
0  1  0  1  0  1   4  17 25.45876 26.80762 24.99249 23.64363 24.80311 24.11448 39.64056 39.63027 39.58689 25.50193 -25.63102 73.54871 -7.47752 -14.93823
C	 -2.296786653	 0.606018811	 -0.000018048
H	 -2.296838823	 1.667866038	 0.000419183
C	 -2.296449804	 -0.606019297	 -0.000077392
H	 -2.295914756	 -1.667848873	 0.000251865
C	 -0.420431129	 2.187351486	 0.335774618
H	 -1.163927388	 1.767447914	 1.013870551
H	 0.334993540	 2.683280777	 0.945240184
H	 -0.910040614	 2.946915563	 -0.272118952
C	 0.205458927	 1.093487479	 -0.519286390
H	 0.931067238	 1.531955704	 -1.208305462
H	 -0.561869231	 0.621463077	 -1.136722502
C	 0.889264659	 0.021601762	 0.317731850
H	 1.681310876	 0.478725267	 0.918468755
H	 0.165283945	 -0.396781370	 1.021843922
C	 1.475567703	 -1.105942964	 -0.520145248
H	 2.217828482	 -0.696288287	 -1.209143086
H	 0.683027411	 -1.534312961	 -1.137521459
C	 2.110436695	 -2.195242357	 0.334143145
H	 1.375342227	 -2.629632231	 1.012262345
H	 2.523343316	 -2.998606142	 -0.274355489
H	 2.917770417	 -1.789126837	 0.943520268
