21
0  1  0  1  0  1   4  17 -0.95803 -0.87566 -0.99968 -1.08205 -1.03772 -1.06419  0.34876  0.34894  0.34695 -0.93254 -0.35503  0.87174 -0.11426 -1.33500
C	 -3.859048074	 0.606018370	 0.000002676
H	 -3.859100244	 1.667865597	 0.000439907
C	 -3.858711225	 -0.606019738	 -0.000056668
H	 -3.858176177	 -1.667849314	 0.000272589
C	 0.775538806	 2.530333582	 0.294771026
H	 0.375140998	 2.538434551	 1.308938547
H	 1.861583773	 2.582108612	 0.371492889
H	 0.433285801	 3.432940111	 -0.209564142
C	 0.343768835	 1.270074536	 -0.443285872
H	 0.733327843	 1.286995002	 -1.463808563
H	 -0.744837901	 1.244953492	 -0.527732290
C	 0.810992124	 -0.000108591	 0.253468049
H	 1.903335523	 -0.000251131	 0.316474521
H	 0.438897414	 -0.000448655	 1.281335619
C	 0.343539669	 -1.269742489	 -0.444145286
H	 0.733122013	 -1.286101522	 -1.464656932
H	 -0.745043305	 -1.244451643	 -0.528536256
C	 0.775155137	 -2.530537932	 0.293108675
H	 0.374797552	 -2.539183364	 1.307279839
H	 0.432719062	 -3.432724689	 -0.211819466
H	 1.861197168	 -2.582498436	 0.369730107
