21
0  1  0  1  0  1   4  17 -0.97893 -0.80833 -1.04300 -1.21360 -1.11588 -1.17396  1.48351  1.47979  1.47602 -0.87871 -1.07945  3.05806 -0.36797 -2.48935
C	 -3.433011754	 0.606018372	 -0.000002676
H	 -3.433063924	 1.667865599	 0.000434555
C	 -3.432674905	 -0.606019736	 -0.000062020
H	 -3.432139857	 -1.667849312	 0.000267237
C	 0.775538806	 2.530333582	 0.294771026
H	 0.375140998	 2.538434551	 1.308938547
H	 1.861583773	 2.582108612	 0.371492889
H	 0.433285801	 3.432940111	 -0.209564142
C	 0.343768835	 1.270074536	 -0.443285872
H	 0.733327843	 1.286995002	 -1.463808563
H	 -0.744837901	 1.244953492	 -0.527732290
C	 0.810992124	 -0.000108591	 0.253468049
H	 1.903335523	 -0.000251131	 0.316474521
H	 0.438897414	 -0.000448655	 1.281335619
C	 0.343539669	 -1.269742489	 -0.444145286
H	 0.733122013	 -1.286101522	 -1.464656932
H	 -0.745043305	 -1.244451643	 -0.528536256
C	 0.775155137	 -2.530537932	 0.293108675
H	 0.374797552	 -2.539183364	 1.307279839
H	 0.432719062	 -3.432724689	 -0.211819466
H	 1.861197168	 -2.582498436	 0.369730107
