21
0  1  0  1  0  1   4  17 -1.07258 -0.94953 -1.12121 -1.24427 -1.18360 -1.21991  0.75841  0.75550  0.75256 -1.03718 -0.57380  1.60819 -0.20824 -1.86333
C	 -3.646029914	 0.606018371	 0.000000000
H	 -3.646082084	 1.667865598	 0.000437231
C	 -3.645693065	 -0.606019737	 -0.000059344
H	 -3.645158017	 -1.667849313	 0.000269913
C	 0.327508359	 2.530333582	 0.286807673
H	 -0.750985382	 2.538434551	 0.447136760
H	 0.804087760	 2.582108612	 1.265711136
H	 0.593148924	 3.432940111	 -0.261759708
C	 0.750799396	 1.270074536	 -0.456144540
H	 1.829377476	 1.286995002	 -0.629037888
H	 0.279628772	 1.244953492	 -1.441128837
C	 0.381004445	 -0.000108591	 0.296859658
H	 0.872610939	 -0.000251131	 1.274360027
H	 -0.695202337	 -0.000448655	 0.488549972
C	 0.751429088	 -1.269742489	 -0.456772710
H	 1.830009270	 -1.286101522	 -0.629640326
H	 0.280222325	 -1.244451643	 -1.441708705
C	 0.328756163	 -2.530537932	 0.285644230
H	 -0.749720622	 -2.539183364	 0.446009973
H	 0.594818722	 -3.432724689	 -0.263378180
H	 0.805421071	 -2.582498436	 1.264494935
