21
0  1  0  1  0  1   4  17 -0.93949 -0.53738 -1.21544 -1.61755 -1.34886 -1.50715  4.62170  4.61666  4.60966 -0.56370 -3.40290  9.17104 -0.90012 -5.43173
C	 -0.606168508	 0.049039445	 0.953525417
H	 -1.668015822	 0.048941621	 0.953532131
C	 0.605869574	 0.048706249	 0.953786755
H	 1.667699019	 0.048028665	 0.954248454
C	 -2.530403808	 -0.347488625	 4.220252516
H	 -2.538770437	 -1.009442160	 3.353841927
H	 -2.582322138	 -0.973757840	 5.110843290
H	 -3.432818430	 0.261415433	 4.187490891
C	 -1.269871682	 0.507112093	 4.231321786
H	 -1.286523349	 1.180111316	 5.091730906
H	 -1.244604694	 1.141328102	 3.342525677
C	 0.000046938	 -0.331218909	 4.271777120
H	 0.000049670	 -0.949008556	 5.174838518
H	 0.000114032	 -1.019518065	 3.422535931
C	 1.269945496	 0.507157162	 4.231408661
H	 1.286573321	 1.180124276	 5.091829965
H	 1.244800578	 1.141329479	 3.342607468
C	 2.530467989	 -0.347479418	 4.220462247
H	 2.538847755	 -1.009462172	 3.354083171
H	 3.432846759	 0.261451923	 4.187735884
H	 2.582285219	 -0.973694155	 5.111095792
