21
0  1  0  1  0  1   4  17 -1.26387 -1.17575 -1.33452 -1.42265 -1.38003 -1.40480  0.26109  0.26046  0.26014 -1.24024 -0.30520  0.73532 -0.12145 -1.54891
C	 0.343327544	 0.788310653	 -0.000006016
H	 0.343379713	 1.850157880	 -0.000443247
C	 0.342990694	 -0.423727455	 0.000053328
H	 0.342455646	 -1.485557031	 -0.000275929
C	 -4.689671955	 0.372393440	 -0.335774618
H	 -3.954276664	 0.806328303	 -1.013870551
H	 -5.496871654	 -0.033858868	 -0.945240184
H	 -5.102669000	 1.176189730	 0.272118952
C	 -4.055302965	 -0.716575252	 0.519286390
H	 -4.797831742	 -1.125736370	 1.208305462
H	 -3.262853763	 -0.288061774	 1.136722502
C	 -3.468925571	 -1.844711246	 -0.317731850
H	 -4.260829247	 -2.302081637	 -0.918468755
H	 -2.744604792	 -1.426917121	 -1.021843922
C	 -2.785594716	 -2.916236938	 0.520145248
H	 -3.511496463	 -3.354226291	 1.209143086
H	 -2.018345270	 -2.444061911	 1.137521459
C	 -2.159668265	 -4.010699310	 -0.334143145
H	 -1.415928365	 -3.591283764	 -1.012262345
H	 -1.670388130	 -4.769968826	 0.274355489
H	 -2.915041483	 -4.506813063	 -0.943520268
