21
0  1  0  1  0  1   4  17  3.89045  4.66058  3.37836  2.60822  3.20038  2.85063 13.64755 13.63515 13.61758  4.77988 -9.44714 26.03765 -2.34241 -9.46823
C	 -0.606147662	 0.042204827	 1.318045930
H	 -1.667994976	 0.042107003	 1.318052644
C	 0.605890420	 0.041871631	 1.318307268
H	 1.667719865	 0.041194047	 1.318768967
C	 -2.530403808	 -0.347488625	 4.220252516
H	 -2.538770437	 -1.009442160	 3.353841927
H	 -2.582322138	 -0.973757840	 5.110843290
H	 -3.432818430	 0.261415433	 4.187490891
C	 -1.269871682	 0.507112093	 4.231321786
H	 -1.286523349	 1.180111316	 5.091730906
H	 -1.244604694	 1.141328102	 3.342525677
C	 0.000046938	 -0.331218909	 4.271777120
H	 0.000049670	 -0.949008556	 5.174838518
H	 0.000114032	 -1.019518065	 3.422535931
C	 1.269945496	 0.507157162	 4.231408661
H	 1.286573321	 1.180124276	 5.091829965
H	 1.244800578	 1.141329479	 3.342607468
C	 2.530467989	 -0.347479418	 4.220462247
H	 2.538847755	 -1.009462172	 3.354083171
H	 3.432846759	 0.261451923	 4.187735884
H	 2.582285219	 -0.973694155	 5.111095792
