21
0  1  0  1  0  1   4  17 -1.06902 -0.98261 -1.11941 -1.20582 -1.15937 -1.18640  0.32968  0.32978  0.32936 -1.03223 -0.44194  0.94350 -0.11749 -1.41630
C	 -3.870903791	 0.606018298	 0.000003008
H	 -3.870955961	 1.667865525	 0.000440239
C	 -3.870566942	 -0.606019810	 -0.000056336
H	 -3.870031894	 -1.667849386	 0.000272921
C	 -0.420431129	 2.187351486	 0.335774618
H	 -1.163927388	 1.767447914	 1.013870551
H	 0.334993540	 2.683280777	 0.945240184
H	 -0.910040614	 2.946915563	 -0.272118952
C	 0.205458927	 1.093487479	 -0.519286390
H	 0.931067238	 1.531955704	 -1.208305462
H	 -0.561869231	 0.621463077	 -1.136722502
C	 0.889264659	 0.021601762	 0.317731850
H	 1.681310876	 0.478725267	 0.918468755
H	 0.165283945	 -0.396781370	 1.021843922
C	 1.475567703	 -1.105942964	 -0.520145248
H	 2.217828482	 -0.696288287	 -1.209143086
H	 0.683027411	 -1.534312961	 -1.137521459
C	 2.110436695	 -2.195242357	 0.334143145
H	 1.375342227	 -2.629632231	 1.012262345
H	 2.523343316	 -2.998606142	 -0.274355489
H	 2.917770417	 -1.789126837	 0.943520268
