21
0  1  0  1  0  1   4  17 -0.83831 -0.47643 -0.99308 -1.35495 -1.11233 -1.25558  4.04219  4.03392  4.02685 -0.55232 -2.73658  8.06837 -0.96882 -4.91530
C	 -0.342953308	 0.423726089	 0.000006016
H	 -0.342901139	 1.485573316	 -0.000431215
C	 -0.343290158	 -0.788312019	 0.000065360
H	 -0.343825206	 -1.850141595	 -0.000263897
C	 -4.689671955	 0.372393440	 -0.335774618
H	 -3.954276664	 0.806328303	 -1.013870551
H	 -5.496871654	 -0.033858868	 -0.945240184
H	 -5.102669000	 1.176189730	 0.272118952
C	 -4.055302965	 -0.716575252	 0.519286390
H	 -4.797831742	 -1.125736370	 1.208305462
H	 -3.262853763	 -0.288061774	 1.136722502
C	 -3.468925571	 -1.844711246	 -0.317731850
H	 -4.260829247	 -2.302081637	 -0.918468755
H	 -2.744604792	 -1.426917121	 -1.021843922
C	 -2.785594716	 -2.916236938	 0.520145248
H	 -3.511496463	 -3.354226291	 1.209143086
H	 -2.018345270	 -2.444061911	 1.137521459
C	 -2.159668265	 -4.010699310	 -0.334143145
H	 -1.415928365	 -3.591283764	 -1.012262345
H	 -1.670388130	 -4.769968826	 0.274355489
H	 -2.915041483	 -4.506813063	 -0.943520268
