21
0  1  0  1  0  1   4  17 24.21098 25.68361 23.43898 21.96634 23.23066 22.48112 40.25958 40.25341 40.20930 24.28310 -25.91374 75.26396 -8.23102 -16.83610
C	 -1.029190286	 1.152895231	 0.000018048
H	 -1.029138117	 2.214742458	 -0.000419183
C	 -1.029527136	 -0.059142877	 0.000077392
H	 -1.030062184	 -1.120972453	 -0.000251865
C	 -2.159192145	 4.010272884	 -0.335774618
H	 -1.415695885	 3.590369312	 -1.013870551
H	 -2.914616814	 4.506202175	 -0.945240184
H	 -1.669582661	 4.769836961	 0.272118952
C	 -2.785082201	 2.916408877	 0.519286390
H	 -3.510690512	 3.354877102	 1.208305462
H	 -2.017754043	 2.444384476	 1.136722502
C	 -3.468887934	 1.844523160	 -0.317731850
H	 -4.260934150	 2.301646666	 -0.918468755
H	 -2.744907219	 1.426140028	 -1.021843922
C	 -4.055190977	 0.716978435	 0.520145248
H	 -4.797451757	 1.126633112	 1.209143086
H	 -3.262650685	 0.288608437	 1.137521459
C	 -4.690059969	 -0.372320959	 -0.334143145
H	 -3.954965501	 -0.806710833	 -1.012262345
H	 -5.102966591	 -1.175684743	 0.274355489
H	 -5.497393691	 0.033794561	 -0.943520268
