21
0  1  0  1  0  1   4  17 -1.42998 -1.32751 -1.53989 -1.64236 -1.59167 -1.62095  0.35383  0.35526  0.35532 -1.39274 -0.45217  0.98279 -0.12709 -1.79627
C	 0.318689692	 0.606018368	 -0.182297492
H	 0.318741861	 1.667865595	 -0.182734723
C	 0.318352842	 -0.606019740	 -0.182238148
H	 0.317817794	 -1.667849316	 -0.182567405
C	 -3.346044136	 2.530333582	 1.528150373
H	 -2.945646327	 2.538434551	 0.513982851
H	 -4.432089103	 2.582108612	 1.451428509
H	 -3.003791131	 3.432940111	 2.032485541
C	 -2.914274165	 1.270074536	 2.266207270
H	 -3.303833173	 1.286995002	 3.286729962
H	 -1.825667429	 1.244953492	 2.350653689
C	 -3.381497454	 -0.000108591	 1.569453349
H	 -4.473840853	 -0.000251131	 1.506446877
H	 -3.009402743	 -0.000448655	 0.541585779
C	 -2.914044999	 -1.269742489	 2.267066685
H	 -3.303627344	 -1.286101522	 3.287578331
H	 -1.825462025	 -1.244451643	 2.351457655
C	 -3.345660466	 -2.530537932	 1.529812723
H	 -2.945302882	 -2.539183364	 0.515641559
H	 -3.003224393	 -3.432724689	 2.034740865
H	 -4.431702498	 -2.582498436	 1.453191291
