21
0  1  0  1  0  1   4  17 -1.17692 -1.04838 -1.23539 -1.36393 -1.28996 -1.33330  0.75656  0.75580  0.75443 -1.10427 -0.76230  1.81567 -0.20928 -1.94835
C	 -3.646029914	 0.606018371	 0.000000000
H	 -3.646082084	 1.667865598	 0.000437231
C	 -3.645693065	 -0.606019737	 -0.000059344
H	 -3.645158017	 -1.667849313	 0.000269913
C	 -0.420431129	 2.187351486	 0.335774618
H	 -1.163927388	 1.767447914	 1.013870551
H	 0.334993540	 2.683280777	 0.945240184
H	 -0.910040614	 2.946915563	 -0.272118952
C	 0.205458927	 1.093487479	 -0.519286390
H	 0.931067238	 1.531955704	 -1.208305462
H	 -0.561869231	 0.621463077	 -1.136722502
C	 0.889264659	 0.021601762	 0.317731850
H	 1.681310876	 0.478725267	 0.918468755
H	 0.165283945	 -0.396781370	 1.021843922
C	 1.475567703	 -1.105942964	 -0.520145248
H	 2.217828482	 -0.696288287	 -1.209143086
H	 0.683027411	 -1.534312961	 -1.137521459
C	 2.110436695	 -2.195242357	 0.334143145
H	 1.375342227	 -2.629632231	 1.012262345
H	 2.523343316	 -2.998606142	 -0.274355489
H	 2.917770417	 -1.789126837	 0.943520268
