21
0  1  0  1  0  1   4  17 -1.45975 -1.35231 -1.57245 -1.67989 -1.62630 -1.65728  0.39293  0.39436  0.39435 -1.41898 -0.48169  1.06175 -0.13547 -1.86358
C	 -0.606210202	 0.062708681	 0.224484393
H	 -1.668057516	 0.062610857	 0.224491107
C	 0.605827880	 0.062375485	 0.224745731
H	 1.667657325	 0.061697901	 0.225207430
C	 -2.530403808	 -0.347488625	 4.220252516
H	 -2.538770437	 -1.009442160	 3.353841927
H	 -2.582322138	 -0.973757840	 5.110843290
H	 -3.432818430	 0.261415433	 4.187490891
C	 -1.269871682	 0.507112093	 4.231321786
H	 -1.286523349	 1.180111316	 5.091730906
H	 -1.244604694	 1.141328102	 3.342525677
C	 0.000046938	 -0.331218909	 4.271777120
H	 0.000049670	 -0.949008556	 5.174838518
H	 0.000114032	 -1.019518065	 3.422535931
C	 1.269945496	 0.507157162	 4.231408661
H	 1.286573321	 1.180124276	 5.091829965
H	 1.244800578	 1.141329479	 3.342607468
C	 2.530467989	 -0.347479418	 4.220462247
H	 2.538847755	 -1.009462172	 3.354083171
H	 3.432846759	 0.261451923	 4.187735884
H	 2.582285219	 -0.973694155	 5.111095792
