21
0  1  0  1  0  1   4  17  4.56988  5.18759  4.38320  3.76548  4.24756  3.96242 11.87508 11.86571 11.85045  5.13896 -7.91381 22.74092 -2.30105 -7.38709
C	 -2.746534407	 0.606018664	 -0.000012032
H	 -2.746586577	 1.667865891	 0.000425199
C	 -2.746197558	 -0.606019444	 -0.000071376
H	 -2.745662510	 -1.667849020	 0.000257881
C	 -0.420431129	 2.187351486	 0.335774618
H	 -1.163927388	 1.767447914	 1.013870551
H	 0.334993540	 2.683280777	 0.945240184
H	 -0.910040614	 2.946915563	 -0.272118952
C	 0.205458927	 1.093487479	 -0.519286390
H	 0.931067238	 1.531955704	 -1.208305462
H	 -0.561869231	 0.621463077	 -1.136722502
C	 0.889264659	 0.021601762	 0.317731850
H	 1.681310876	 0.478725267	 0.918468755
H	 0.165283945	 -0.396781370	 1.021843922
C	 1.475567703	 -1.105942964	 -0.520145248
H	 2.217828482	 -0.696288287	 -1.209143086
H	 0.683027411	 -1.534312961	 -1.137521459
C	 2.110436695	 -2.195242357	 0.334143145
H	 1.375342227	 -2.629632231	 1.012262345
H	 2.523343316	 -2.998606142	 -0.274355489
H	 2.917770417	 -1.789126837	 0.943520268
