21
0  1  0  1  0  1   4  17 -1.57825 -1.39815 -1.67156 -1.85166 -1.75034 -1.80987  1.12603  1.12285  1.12059 -1.48299 -0.88953  2.46908 -0.33372 -2.72882
C	 0.000187118	 0.606018371	 -0.000000000
H	 0.000239287	 1.667865598	 -0.000437231
C	 -0.000149732	 -0.606019737	 0.000059344
H	 -0.000684780	 -1.667849313	 -0.000269913
C	 -4.689671955	 0.372393440	 -0.335774618
H	 -3.954276664	 0.806328303	 -1.013870551
H	 -5.496871654	 -0.033858868	 -0.945240184
H	 -5.102669000	 1.176189730	 0.272118952
C	 -4.055302965	 -0.716575252	 0.519286390
H	 -4.797831742	 -1.125736370	 1.208305462
H	 -3.262853763	 -0.288061774	 1.136722502
C	 -3.468925571	 -1.844711246	 -0.317731850
H	 -4.260829247	 -2.302081637	 -0.918468755
H	 -2.744604792	 -1.426917121	 -1.021843922
C	 -2.785594716	 -2.916236938	 0.520145248
H	 -3.511496463	 -3.354226291	 1.209143086
H	 -2.018345270	 -2.444061911	 1.137521459
C	 -2.159668265	 -4.010699310	 -0.334143145
H	 -1.415928365	 -3.591283764	 -1.012262345
H	 -1.670388130	 -4.769968826	 0.274355489
H	 -2.915041483	 -4.506813063	 -0.943520268
