21
0  1  0  1  0  1   4  17 19.83933 21.26860 18.86644 17.43718 18.63925 17.92923 36.43304 36.41556 36.37984 21.11590 -24.94244 67.94175 -5.60758 -16.27583
C	 -0.956222011	 0.606018379	 -0.546861231
H	 -0.956169842	 1.667865606	 -0.547298462
C	 -0.956558861	 -0.606019729	 -0.546801887
H	 -0.957093909	 -1.667849305	 -0.547131144
C	 -3.013213859	 2.530333582	 -2.109729071
H	 -1.934720117	 2.538434551	 -2.270058158
H	 -3.489793260	 2.582108612	 -3.088632534
H	 -3.278854424	 3.432940111	 -1.561161690
C	 -3.436504896	 1.270074536	 -1.366776859
H	 -4.515082976	 1.286995002	 -1.193883510
H	 -2.965334272	 1.244953492	 -0.381792561
C	 -3.066709945	 -0.000108591	 -2.119781057
H	 -3.558316439	 -0.000251131	 -3.097281426
H	 -1.990503162	 -0.000448655	 -2.311471370
C	 -3.437134588	 -1.269742489	 -1.366148688
H	 -4.515714771	 -1.286101522	 -1.193281072
H	 -2.965927825	 -1.244451643	 -0.381212693
C	 -3.014461662	 -2.530537932	 -2.108565628
H	 -1.935984878	 -2.539183364	 -2.268931372
H	 -3.280524223	 -3.432724689	 -1.559543218
H	 -3.491126571	 -2.582498436	 -3.087416333
