21
0  1  0  1  0  1   4  17 -0.98568 -0.90019 -1.02937 -1.11486 -1.07421 -1.09856  0.36995  0.36882  0.36680 -0.97192 -0.32954  0.86686 -0.12145 -1.38779
C	 -3.853438300	 0.606018370	 0.000002531
H	 -3.853490470	 1.667865597	 0.000439762
C	 -3.853101451	 -0.606019738	 -0.000056813
H	 -3.852566403	 -1.667849314	 0.000272444
C	 0.327508359	 2.530333582	 0.286807673
H	 -0.750985382	 2.538434551	 0.447136760
H	 0.804087760	 2.582108612	 1.265711136
H	 0.593148924	 3.432940111	 -0.261759708
C	 0.750799396	 1.270074536	 -0.456144540
H	 1.829377476	 1.286995002	 -0.629037888
H	 0.279628772	 1.244953492	 -1.441128837
C	 0.381004445	 -0.000108591	 0.296859658
H	 0.872610939	 -0.000251131	 1.274360027
H	 -0.695202337	 -0.000448655	 0.488549972
C	 0.751429088	 -1.269742489	 -0.456772710
H	 1.830009270	 -1.286101522	 -0.629640326
H	 0.280222325	 -1.244451643	 -1.441708705
C	 0.328756163	 -2.530537932	 0.285644230
H	 -0.749720622	 -2.539183364	 0.446009973
H	 0.594818722	 -3.432724689	 -0.263378180
H	 0.805421071	 -2.582498436	 1.264494935
