21
0  1  0  1  0  1   4  17 -0.89965 -0.84141 -0.94346 -1.00170 -0.97214 -0.98920  0.11944  0.11977  0.11984 -0.88235 -0.26472  0.48709 -0.06728 -1.03743
C	 -4.095777668	 0.606018224	 0.000006016
H	 -4.095829838	 1.667865451	 0.000443247
C	 -4.095440819	 -0.606019884	 -0.000053328
H	 -4.094905771	 -1.667849460	 0.000275929
C	 -0.420431129	 2.187351486	 0.335774618
H	 -1.163927388	 1.767447914	 1.013870551
H	 0.334993540	 2.683280777	 0.945240184
H	 -0.910040614	 2.946915563	 -0.272118952
C	 0.205458927	 1.093487479	 -0.519286390
H	 0.931067238	 1.531955704	 -1.208305462
H	 -0.561869231	 0.621463077	 -1.136722502
C	 0.889264659	 0.021601762	 0.317731850
H	 1.681310876	 0.478725267	 0.918468755
H	 0.165283945	 -0.396781370	 1.021843922
C	 1.475567703	 -1.105942964	 -0.520145248
H	 2.217828482	 -0.696288287	 -1.209143086
H	 0.683027411	 -1.534312961	 -1.137521459
C	 2.110436695	 -2.195242357	 0.334143145
H	 1.375342227	 -2.629632231	 1.012262345
H	 2.523343316	 -2.998606142	 -0.274355489
H	 2.917770417	 -1.789126837	 0.943520268
