29
0  1  0  1  0  1  12  17 -1.75840 -1.53821 -1.60059 -1.82078 -1.68256 -1.76386  2.36994  2.36706  2.36375 -1.73921 -1.68756  4.85393 -0.53183 -4.37375
C	 -3.160119291	 1.066092272	 -1.544156795
H	 -3.074301148	 2.076714925	 -1.150816417
H	 -4.031539314	 1.012130064	 -2.194227437
H	 -2.284325107	 0.834737617	 -2.143690576
C	 -3.296390173	 0.014265315	 -0.468639398
O	 -3.159313599	 -1.178614090	 -0.708047272
N	 -3.592814770	 0.492997852	 0.771332939
H	 -3.714773161	 1.482911943	 0.881189267
C	 -3.835111894	 -0.382773411	 1.896222458
H	 -3.644895211	 -1.396049661	 1.556154682
H	 -3.166661284	 -0.150978289	 2.723045820
H	 -4.866516162	 -0.312513864	 2.238739396
C	 3.025422436	 0.252352966	 -1.851642497
H	 2.505447922	 1.045054543	 -2.390612790
H	 3.789585242	 0.725234142	 -1.234383638
H	 3.528957973	 -0.374236810	 -2.586210484
C	 2.055407459	 -0.551233625	 -0.995054504
H	 2.600405820	 -1.336588170	 -0.466121916
H	 1.321230534	 -1.054706004	 -1.627067531
C	 1.323650068	 0.314466798	 0.021995290
H	 2.053413215	 0.842593858	 0.643957108
H	 0.755467704	 1.088690795	 -0.503912649
C	 0.378581265	 -0.477831955	 0.915100614
H	 0.950997106	 -1.234026522	 1.457292531
H	 -0.332123648	 -1.018437811	 0.287154385
C	 -0.363057916	 0.410348994	 1.905149188
H	 -0.954814936	 1.160326318	 1.378881178
H	 -1.035807029	 -0.164378664	 2.540813962
H	 0.336372704	 0.938881325	 2.553259186
