29
0  1  0  1  0  1  12  17 -1.74069 -1.60233 -1.64214 -1.78051 -1.70927 -1.75133  0.86919  0.86536  0.86329 -1.68888 -0.77876  2.06255 -0.27149 -2.70117
C	 -0.252756237	 1.066068135	 1.544169922
H	 -0.338574380	 2.076690788	 1.150829544
H	 0.618663787	 1.012105927	 2.194240564
H	 -1.128550421	 0.834713480	 2.143703703
C	 -0.116485354	 0.014241178	 0.468652525
O	 -0.253561928	 -1.178638227	 0.708060399
N	 0.179939242	 0.492973715	 -0.771319812
H	 0.301897633	 1.482887806	 -0.881176140
C	 0.422236367	 -0.382797548	 -1.896209331
H	 0.232019683	 -1.396073798	 -1.556141555
H	 -0.246214244	 -0.151002426	 -2.723032693
H	 1.453640634	 -0.312538001	 -2.238726269
C	 -6.151827443	 0.252352966	 0.021565365
H	 -5.631852929	 1.045054543	 0.560535657
H	 -6.915990249	 0.725234142	 -0.595693494
H	 -6.655362980	 -0.374236810	 0.756133352
C	 -5.181812466	 -0.551233625	 -0.835022628
H	 -5.726810828	 -1.336588170	 -1.363955217
H	 -4.447635542	 -1.054706004	 -0.203009602
C	 -4.450055075	 0.314466798	 -1.852072423
H	 -5.179818222	 0.842593858	 -2.474034240
H	 -3.881872711	 1.088690795	 -1.326164483
C	 -3.504986272	 -0.477831955	 -2.745177747
H	 -4.077402113	 -1.234026522	 -3.287369663
H	 -2.794281359	 -1.018437811	 -2.117231517
C	 -2.763347091	 0.410348994	 -3.735226320
H	 -2.171590071	 1.160326318	 -3.208958310
H	 -2.090597979	 -0.164378664	 -4.370891094
H	 -3.462777711	 0.938881325	 -4.383336318
