29
0  1  0  1  0  1  12  17 -2.88141 -2.53110 -2.72205 -3.07236 -2.86863 -2.98830  3.59364  3.58819  3.58371 -2.86311 -2.29530  6.94596 -0.69375 -6.82001
C	 -0.433125340	 1.157596273	 1.544156535
H	 -0.518943483	 2.168218926	 1.150816157
H	 0.438294684	 1.103634065	 2.194227177
H	 -1.308919524	 0.926241618	 2.143690316
C	 -0.296854457	 0.105769316	 0.468639138
O	 -0.433931031	 -1.087110089	 0.708047012
N	 -0.000429861	 0.584501853	 -0.771333199
H	 0.121528530	 1.574415944	 -0.881189527
C	 0.241867264	 -0.291269410	 -1.896222718
H	 0.051650580	 -1.304545660	 -1.556154942
H	 -0.426583347	 -0.059474288	 -2.723046080
H	 1.273271531	 -0.221009863	 -2.238739656
C	 -3.984425231	 2.339096106	 2.473504106
H	 -2.964712575	 2.665697668	 2.680278814
H	 -4.588387674	 3.233830134	 2.321023656
H	 -4.357294503	 1.830848730	 3.361426412
C	 -4.029620775	 1.437287896	 1.246669655
H	 -5.060081348	 1.125375270	 1.061099777
H	 -3.457054603	 0.525356836	 1.426920529
C	 -3.488348000	 2.124408659	 0.000000000
H	 -4.040924197	 3.053267276	 -0.173753160
H	 -2.447374411	 2.417399143	 0.171358454
C	 -3.562421723	 1.252307346	 -1.245986300
H	 -4.604606874	 0.980834950	 -1.429330353
H	 -3.027787273	 0.319398129	 -1.057521370
C	 -2.990805471	 1.947867569	 -2.474213106
H	 -1.944118311	 2.209561675	 -2.314330150
H	 -3.048858387	 1.317746100	 -3.361089505
H	 -3.531752132	 2.870479837	 -2.685777519
