29
0  1  0  1  0  1  12  17 49.64160 51.69409 49.66262 47.61012 49.39125 48.33416 76.03545 76.03082 75.96594 47.10368 -41.67655 138.82501 -19.04977 -30.99501
C	 -2.175920369	 1.066213821	 -1.544089597
H	 -2.090102226	 2.076836474	 -1.150749219
H	 -3.047340392	 1.012251613	 -2.194160239
H	 -1.300126185	 0.834859166	 -2.143623378
C	 -2.312191251	 0.014386864	 -0.468572200
O	 -2.175114677	 -1.178492541	 -0.707980074
N	 -2.608615848	 0.493119401	 0.771400137
H	 -2.730574239	 1.483033492	 0.881256465
C	 -2.850912972	 -0.382651862	 1.896289656
H	 -2.660696289	 -1.395928112	 1.556221880
H	 -2.182462362	 -0.150856740	 2.723113018
H	 -3.882317240	 -0.312392315	 2.238806594
C	 0.821814429	 0.509018974	 -2.473504106
H	 -0.197898227	 0.835620535	 -2.680278814
H	 1.425776872	 1.403753002	 -2.321023656
H	 1.194683701	 0.000771597	 -3.361426412
C	 0.867009973	 -0.392789236	 -1.246669655
H	 1.897470546	 -0.704701863	 -1.061099777
H	 0.294443801	 -1.304720296	 -1.426920529
C	 0.325737198	 0.294331526	 0.000000000
H	 0.878313395	 1.223190143	 0.173753160
H	 -0.715236392	 0.587322010	 -0.171358454
C	 0.399810921	 -0.577769786	 1.245986300
H	 1.441996073	 -0.849242182	 1.429330353
H	 -0.134823528	 -1.510679003	 1.057521370
C	 -0.171805331	 0.117790437	 2.474213106
H	 -1.218492491	 0.379484543	 2.314330150
H	 -0.113752415	 -0.512331033	 3.361089505
H	 0.369141330	 1.040402704	 2.685777519
