29
0  1  0  1  0  1  12  17 14.45448 15.42857 14.80782 13.83372 14.63983 14.15590 27.48368 27.47204 27.42961 14.72018 -16.25349 50.00911 -4.78271 -14.25273
C	 -2.418283079	 1.066164681	 -1.544117416
H	 -2.332464936	 2.076787334	 -1.150777038
H	 -3.289703102	 1.012202473	 -2.194188058
H	 -1.542488895	 0.834810026	 -2.143651197
C	 -2.554553961	 0.014337724	 -0.468600019
O	 -2.417477387	 -1.178541681	 -0.708007893
N	 -2.850978558	 0.493070261	 0.771372318
H	 -2.972936949	 1.482984352	 0.881228646
C	 -3.093275682	 -0.382701002	 1.896261837
H	 -2.903058999	 -1.395977252	 1.556194061
H	 -2.424825072	 -0.150905880	 2.723085199
H	 -4.124679950	 -0.312441455	 2.238778775
C	 3.025422436	 0.252352966	 -1.851642497
H	 2.505447922	 1.045054543	 -2.390612790
H	 3.789585242	 0.725234142	 -1.234383638
H	 3.528957973	 -0.374236810	 -2.586210484
C	 2.055407459	 -0.551233625	 -0.995054504
H	 2.600405820	 -1.336588170	 -0.466121916
H	 1.321230534	 -1.054706004	 -1.627067531
C	 1.323650068	 0.314466798	 0.021995290
H	 2.053413215	 0.842593858	 0.643957108
H	 0.755467704	 1.088690795	 -0.503912649
C	 0.378581265	 -0.477831955	 0.915100614
H	 0.950997106	 -1.234026522	 1.457292531
H	 -0.332123648	 -1.018437811	 0.287154385
C	 -0.363057916	 0.410348994	 1.905149188
H	 -0.954814936	 1.160326318	 1.378881178
H	 -1.035807029	 -0.164378664	 2.540813962
H	 0.336372704	 0.938881325	 2.553259186
