29
0  1  0  1  0  1  12  17 -2.89882 -2.73846 -2.81362 -2.97398 -2.88686 -2.93774  0.32337  0.32329  0.32209 -3.01133 -1.18772  2.43393 -0.65780 -3.59974
C	 -0.071967435	 1.157547189	 1.544183309
H	 -0.157785578	 2.168169842	 1.150842931
H	 0.799452589	 1.103584981	 2.194253951
H	 -0.947761619	 0.926192534	 2.143717090
C	 0.064303448	 0.105720232	 0.468665912
O	 -0.072773126	 -1.087159173	 0.708073786
N	 0.360728044	 0.584452769	 -0.771306425
H	 0.482686435	 1.574366860	 -0.881162753
C	 0.603025169	 -0.291318494	 -1.896195944
H	 0.412808485	 -1.304594744	 -1.556128168
H	 -0.065425442	 -0.059523372	 -2.723019306
H	 1.634429436	 -0.221058947	 -2.238712882
C	 -4.245232650	 -1.902007948	 2.473504106
H	 -4.018221571	 -0.855610102	 2.680278814
H	 -5.322076269	 -1.977687752	 2.321023656
H	 -3.991512146	 -2.479045898	 3.361426412
C	 -3.486841603	 -2.392052542	 1.246669655
H	 -3.731947631	 -3.440413889	 1.061099777
H	 -2.410803052	 -2.352161222	 1.426920529
C	 -3.811269251	 -1.579736187	 0.000000000
H	 -4.891972508	 -1.593851903	 -0.173753160
H	 -3.544519659	 -0.531731372	 0.171358454
C	 -3.093044221	 -2.079936570	 -1.245986300
H	 -3.379034805	 -3.118231584	 -1.429330353
H	 -2.017803915	 -2.083384163	 -1.057521370
C	 -3.409608918	 -1.237122263	 -2.474213106
H	 -3.112899082	 -0.199817539	 -2.314330150
H	 -2.892934176	 -1.602458297	 -3.361089505
H	 -4.479087910	 -1.244289679	 -2.685777519
