29
0  1  0  1  0  1  12  17 -1.91228 -1.77507 -1.81157 -1.94878 -1.87407 -1.91773  0.95939  0.95760  0.95647 -1.93952 -0.79028  2.15760 -0.27926 -3.02757
C	 -3.407398028	 1.066068135	 -1.544169922
H	 -3.321579885	 2.076690788	 -1.150829544
H	 -4.278818051	 1.012105927	 -2.194240564
H	 -2.531603844	 0.834713480	 -2.143703703
C	 -3.543668910	 0.014241178	 -0.468652525
O	 -3.406592336	 -1.178638227	 -0.708060399
N	 -3.840093507	 0.492973715	 0.771319812
H	 -3.962051898	 1.482887806	 0.881176140
C	 -4.082390631	 -0.382797548	 1.896209331
H	 -3.892173948	 -1.396073798	 1.556141555
H	 -3.413940021	 -0.151002426	 2.723032693
H	 -5.113794899	 -0.312538001	 2.238726269
C	 3.025422436	 0.252352966	 -1.851642497
H	 2.505447922	 1.045054543	 -2.390612790
H	 3.789585242	 0.725234142	 -1.234383638
H	 3.528957973	 -0.374236810	 -2.586210484
C	 2.055407459	 -0.551233625	 -0.995054504
H	 2.600405820	 -1.336588170	 -0.466121916
H	 1.321230534	 -1.054706004	 -1.627067531
C	 1.323650068	 0.314466798	 0.021995290
H	 2.053413215	 0.842593858	 0.643957108
H	 0.755467704	 1.088690795	 -0.503912649
C	 0.378581265	 -0.477831955	 0.915100614
H	 0.950997106	 -1.234026522	 1.457292531
H	 -0.332123648	 -1.018437811	 0.287154385
C	 -0.363057916	 0.410348994	 1.905149188
H	 -0.954814936	 1.160326318	 1.378881178
H	 -1.035807029	 -0.164378664	 2.540813962
H	 0.336372704	 0.938881325	 2.553259186
