29
0  1  0  1  0  1  12  17 -2.47573 -2.36530 -2.42195 -2.53238 -2.47863 -2.50969 -0.05639 -0.05788 -0.05784 -2.57545 -0.72977  1.29116 -0.44135 -2.69549
C	 0.108821367	 1.249026243	 1.544196697
H	 0.023003224	 2.259648896	 1.150856319
H	 0.980241391	 1.195064035	 2.194267339
H	 -0.766972817	 1.017671588	 2.143730478
C	 0.245092250	 0.197199286	 0.468679300
O	 0.108015676	 -0.995680119	 0.708087174
N	 0.541516846	 0.675931823	 -0.771293037
H	 0.663475237	 1.665845914	 -0.881149365
C	 0.783813971	 -0.199839440	 -1.896182556
H	 0.593597287	 -1.213115690	 -1.556114780
H	 0.115363360	 0.031955682	 -2.723005918
H	 1.815218238	 -0.129579893	 -2.238699494
C	 -4.245232650	 -1.902007948	 2.473504106
H	 -4.018221571	 -0.855610102	 2.680278814
H	 -5.322076269	 -1.977687752	 2.321023656
H	 -3.991512146	 -2.479045898	 3.361426412
C	 -3.486841603	 -2.392052542	 1.246669655
H	 -3.731947631	 -3.440413889	 1.061099777
H	 -2.410803052	 -2.352161222	 1.426920529
C	 -3.811269251	 -1.579736187	 0.000000000
H	 -4.891972508	 -1.593851903	 -0.173753160
H	 -3.544519659	 -0.531731372	 0.171358454
C	 -3.093044221	 -2.079936570	 -1.245986300
H	 -3.379034805	 -3.118231584	 -1.429330353
H	 -2.017803915	 -2.083384163	 -1.057521370
C	 -3.409608918	 -1.237122263	 -2.474213106
H	 -3.112899082	 -0.199817539	 -2.314330150
H	 -2.892934176	 -1.602458297	 -3.361089505
H	 -4.479087910	 -1.244289679	 -2.685777519
