29
0  1  0  1  0  1  12  17  6.21361  7.28518  6.44324  5.37167  6.18202  5.70192 21.90336 21.88513 21.85759  6.45199 -13.61355 40.51350 -3.41827 -17.02969
C	 -0.974232650	 1.432180685	 1.544116372
H	 -1.060050793	 2.442803338	 1.150775994
H	 -0.102812626	 1.378218477	 2.194187014
H	 -1.850026834	 1.200826030	 2.143650153
C	 -0.837961767	 0.380353728	 0.468598975
O	 -0.975038341	 -0.812525677	 0.708006849
N	 -0.541537171	 0.859086265	 -0.771373362
H	 -0.419578780	 1.849000356	 -0.881229690
C	 -0.299240046	 -0.016684998	 -1.896262881
H	 -0.489456730	 -1.029961248	 -1.556195105
H	 -0.967690657	 0.215110124	 -2.723086243
H	 0.732164221	 0.053574549	 -2.238779819
C	 -3.984425231	 2.339096106	 2.473504106
H	 -2.964712575	 2.665697668	 2.680278814
H	 -4.588387674	 3.233830134	 2.321023656
H	 -4.357294503	 1.830848730	 3.361426412
C	 -4.029620775	 1.437287896	 1.246669655
H	 -5.060081348	 1.125375270	 1.061099777
H	 -3.457054603	 0.525356836	 1.426920529
C	 -3.488348000	 2.124408659	 0.000000000
H	 -4.040924197	 3.053267276	 -0.173753160
H	 -2.447374411	 2.417399143	 0.171358454
C	 -3.562421723	 1.252307346	 -1.245986300
H	 -4.604606874	 0.980834950	 -1.429330353
H	 -3.027787273	 0.319398129	 -1.057521370
C	 -2.990805471	 1.947867569	 -2.474213106
H	 -1.944118311	 2.209561675	 -2.314330150
H	 -3.048858387	 1.317746100	 -3.361089505
H	 -3.531752132	 2.870479837	 -2.685777519
