29
0  1  0  1  0  1  12  17 -2.00827 -1.50089 -1.80802 -2.31540 -1.98974 -2.18145  6.67959  6.67012  6.66198 -1.91790 -4.20435 12.69052 -1.17954 -9.22453
C	 -0.613494444	 1.249124410	 1.544143147
H	 -0.699312587	 2.259747063	 1.150802769
H	 0.257925580	 1.195162202	 2.194213789
H	 -1.489288628	 1.017769755	 2.143676928
C	 -0.477223561	 0.197297453	 0.468625750
O	 -0.614300135	 -0.995581952	 0.708033624
N	 -0.180798965	 0.676029990	 -0.771346587
H	 -0.058840574	 1.665944081	 -0.881202915
C	 0.061498160	 -0.199741273	 -1.896236106
H	 -0.128718524	 -1.213017523	 -1.556168330
H	 -0.606952451	 0.032053849	 -2.723059468
H	 1.092902427	 -0.129481726	 -2.238753044
C	 -3.984425231	 2.339096106	 2.473504106
H	 -2.964712575	 2.665697668	 2.680278814
H	 -4.588387674	 3.233830134	 2.321023656
H	 -4.357294503	 1.830848730	 3.361426412
C	 -4.029620775	 1.437287896	 1.246669655
H	 -5.060081348	 1.125375270	 1.061099777
H	 -3.457054603	 0.525356836	 1.426920529
C	 -3.488348000	 2.124408659	 0.000000000
H	 -4.040924197	 3.053267276	 -0.173753160
H	 -2.447374411	 2.417399143	 0.171358454
C	 -3.562421723	 1.252307346	 -1.245986300
H	 -4.604606874	 0.980834950	 -1.429330353
H	 -3.027787273	 0.319398129	 -1.057521370
C	 -2.990805471	 1.947867569	 -2.474213106
H	 -1.944118311	 2.209561675	 -2.314330150
H	 -3.048858387	 1.317746100	 -3.361089505
H	 -3.531752132	 2.870479837	 -2.685777519
