29
0  1  0  1  0  1  12  17 72.29676 74.18050 72.29202 70.40828 72.09585 71.07873 94.15369 94.14059 94.04223 67.66748 -35.64775 161.47702 -30.77166 -27.39013
C	 -1.966235532	 1.066212954	 -1.544088034
H	 -1.880417389	 2.076835607	 -1.150747656
H	 -2.837655555	 1.012250746	 -2.194158676
H	 -1.090441348	 0.834858299	 -2.143621815
C	 -2.102506414	 0.014385997	 -0.468570637
O	 -1.965429840	 -1.178493408	 -0.707978511
N	 -2.398931011	 0.493118534	 0.771401700
H	 -2.520889402	 1.483032625	 0.881258028
C	 -2.641228135	 -0.382652729	 1.896291219
H	 -2.451011452	 -1.395928979	 1.556223443
H	 -1.972777525	 -0.150857607	 2.723114581
H	 -3.672632403	 -0.312393182	 2.238808157
C	 0.410218543	 0.252352966	 -2.432592287
H	 -0.316530679	 1.045054543	 -2.251766295
H	 1.326861799	 0.725234142	 -2.785747260
H	 0.025831774	 -0.374236810	 -3.235950847
C	 0.667038017	 -0.551233625	 -1.164240678
H	 1.397606256	 -1.336588170	 -1.371756810
H	 -0.247389782	 -1.054706004	 -0.844431324
C	 1.181950281	 0.314466798	 -0.021995290
H	 2.085466588	 0.842593858	 -0.343007806
H	 0.442409463	 1.088690795	 0.207111101
C	 1.482867778	 -0.477831955	 1.243010963
H	 2.238627672	 -1.234026522	 1.018380261
H	 0.583697935	 -1.018437811	 1.544526357
C	 1.969455403	 0.410348994	 2.380313621
H	 1.217815427	 1.160326318	 2.629656228
H	 2.183582689	 -0.164378664	 3.280763830
H	 2.880450436	 0.938881325	 2.098643935
