29
0  1  0  1  0  1  12  17 -3.05624 -2.70430 -2.87841 -3.23035 -2.99890 -3.13636  2.78247  2.78126  2.77260 -3.11473 -3.49067  8.50555 -1.57325 -6.55635
C	 -0.433545039	 0.974589081	 1.544156535
H	 -0.519363182	 1.985211734	 1.150816157
H	 0.437874985	 0.920626873	 2.194227177
H	 -1.309339223	 0.743234426	 2.143690316
C	 -0.297274156	 -0.077237876	 0.468639138
O	 -0.434350730	 -1.270117281	 0.708047012
N	 -0.000849560	 0.401494661	 -0.771333199
H	 0.121108831	 1.391408752	 -0.881189527
C	 0.241447565	 -0.474276602	 -1.896222718
H	 0.051230881	 -1.487552852	 -1.556154942
H	 -0.427003046	 -0.242481480	 -2.723046080
H	 1.272851832	 -0.404017055	 -2.238739656
C	 -4.245232650	 -1.902007948	 2.473504106
H	 -4.018221571	 -0.855610102	 2.680278814
H	 -5.322076269	 -1.977687752	 2.321023656
H	 -3.991512146	 -2.479045898	 3.361426412
C	 -3.486841603	 -2.392052542	 1.246669655
H	 -3.731947631	 -3.440413889	 1.061099777
H	 -2.410803052	 -2.352161222	 1.426920529
C	 -3.811269251	 -1.579736187	 0.000000000
H	 -4.891972508	 -1.593851903	 -0.173753160
H	 -3.544519659	 -0.531731372	 0.171358454
C	 -3.093044221	 -2.079936570	 -1.245986300
H	 -3.379034805	 -3.118231584	 -1.429330353
H	 -2.017803915	 -2.083384163	 -1.057521370
C	 -3.409608918	 -1.237122263	 -2.474213106
H	 -3.112899082	 -0.199817539	 -2.314330150
H	 -2.892934176	 -1.602458297	 -3.361089505
H	 -4.479087910	 -1.244289679	 -2.685777519
