29
0  1  0  1  0  1  12  17 -1.24777 -1.18846 -1.20947 -1.26878 -1.24585 -1.25934  0.08134  0.07991  0.07936 -1.25585 -0.22215  0.42464 -0.08589 -1.37245
C	 0.188426312	 1.066019862	 1.727203888
H	 0.102608169	 2.076642515	 1.333863510
H	 1.059846336	 1.012057654	 2.377274530
H	 -0.687367872	 0.834665207	 2.326737669
C	 0.324697195	 0.014192905	 0.651686491
O	 0.187620621	 -1.178686500	 0.891094365
N	 0.621121791	 0.492925442	 -0.588285846
H	 0.743080182	 1.482839533	 -0.698142174
C	 0.863418916	 -0.382845821	 -1.713175365
H	 0.673202232	 -1.396122071	 -1.373107589
H	 0.194968305	 -0.151050699	 -2.539998727
H	 1.894823183	 -0.312586274	 -2.055692303
C	 -6.151827443	 0.252352966	 0.021565365
H	 -5.631852929	 1.045054543	 0.560535657
H	 -6.915990249	 0.725234142	 -0.595693494
H	 -6.655362980	 -0.374236810	 0.756133352
C	 -5.181812466	 -0.551233625	 -0.835022628
H	 -5.726810828	 -1.336588170	 -1.363955217
H	 -4.447635542	 -1.054706004	 -0.203009602
C	 -4.450055075	 0.314466798	 -1.852072423
H	 -5.179818222	 0.842593858	 -2.474034240
H	 -3.881872711	 1.088690795	 -1.326164483
C	 -3.504986272	 -0.477831955	 -2.745177747
H	 -4.077402113	 -1.234026522	 -3.287369663
H	 -2.794281359	 -1.018437811	 -2.117231517
C	 -2.763347091	 0.410348994	 -3.735226320
H	 -2.171590071	 1.160326318	 -3.208958310
H	 -2.090597979	 -0.164378664	 -4.370891094
H	 -3.462777711	 0.938881325	 -4.383336318
