29
0  1  0  1  0  1  12  17 -1.47079 -1.00802 -1.34276 -1.80554 -1.48757 -1.67508  6.26326  6.25402  6.24529 -1.42921 -4.70421 13.11759 -1.49954 -8.34305
C	 -2.996973960	 1.066117740	 -1.544143147
H	 -2.911155817	 2.076740393	 -1.150802769
H	 -3.868393983	 1.012155532	 -2.194213789
H	 -2.121179776	 0.834763085	 -2.143676928
C	 -3.133244842	 0.014290783	 -0.468625750
O	 -2.996168268	 -1.178588622	 -0.708033624
N	 -3.429669439	 0.493023320	 0.771346587
H	 -3.551627830	 1.482937411	 0.881202915
C	 -3.671966563	 -0.382747943	 1.896236106
H	 -3.481749880	 -1.396024193	 1.556168330
H	 -3.003515953	 -0.150952821	 2.723059468
H	 -4.703370831	 -0.312488396	 2.238753044
C	 1.073543025	 -0.071930816	 -2.473504106
H	 0.846531946	 0.974467030	 -2.680278814
H	 2.150386644	 -0.147610620	 -2.321023656
H	 0.819822521	 -0.648968766	 -3.361426412
C	 0.315151978	 -0.561975410	 -1.246669655
H	 0.560258006	 -1.610336757	 -1.061099777
H	 -0.760886573	 -0.522084089	 -1.426920529
C	 0.639579626	 0.250340945	 0.000000000
H	 1.720282883	 0.236225229	 0.173753160
H	 0.372830033	 1.298345760	 -0.171358454
C	 -0.078645404	 -0.249859437	 1.245986300
H	 0.207345181	 -1.288154452	 1.429330353
H	 -1.153885709	 -0.253307031	 1.057521370
C	 0.237919293	 0.592954870	 2.474213106
H	 -0.058790543	 1.630259593	 2.314330150
H	 -0.278755449	 0.227618835	 3.361089505
H	 1.307398285	 0.585787453	 2.685777519
