29
0  1  0  1  0  1  12  17 -1.34915 -1.27382 -1.28794 -1.36327 -1.33129 -1.34996  0.21988  0.21702  0.21660 -1.37101 -0.30136  0.75176 -0.16702 -1.65438
C	 -3.647591777	 1.066043998	 -1.544183570
H	 -3.561773634	 2.076666651	 -1.150843192
H	 -4.519011800	 1.012081790	 -2.194254212
H	 -2.771797593	 0.834689343	 -2.143717351
C	 -3.783862659	 0.014217041	 -0.468666173
O	 -3.646786085	 -1.178662364	 -0.708074047
N	 -4.080287256	 0.492949578	 0.771306164
H	 -4.202245647	 1.482863669	 0.881162492
C	 -4.322584380	 -0.382821685	 1.896195683
H	 -4.132367697	 -1.396097935	 1.556127907
H	 -3.654133770	 -0.151026563	 2.723019045
H	 -5.353988648	 -0.312562138	 2.238712621
C	 0.410218543	 0.252352966	 -2.432592287
H	 -0.316530679	 1.045054543	 -2.251766295
H	 1.326861799	 0.725234142	 -2.785747260
H	 0.025831774	 -0.374236810	 -3.235950847
C	 0.667038017	 -0.551233625	 -1.164240678
H	 1.397606256	 -1.336588170	 -1.371756810
H	 -0.247389782	 -1.054706004	 -0.844431324
C	 1.181950281	 0.314466798	 -0.021995290
H	 2.085466588	 0.842593858	 -0.343007806
H	 0.442409463	 1.088690795	 0.207111101
C	 1.482867778	 -0.477831955	 1.243010963
H	 2.238627672	 -1.234026522	 1.018380261
H	 0.583697935	 -1.018437811	 1.544526357
C	 1.969455403	 0.410348994	 2.380313621
H	 1.217815427	 1.160326318	 2.629656228
H	 2.183582689	 -0.164378664	 3.280763830
H	 2.880450436	 0.938881325	 2.098643935
