29
0  1  0  1  0  1  12  17 -2.65143 -2.48361 -2.57209 -2.73990 -2.66227 -2.70766  0.98534  0.98358  0.98237 -2.69406 -0.66288  2.00740 -0.25354 -3.78504
C	 -0.072387134	 0.974539997	 1.544183309
H	 -0.158205277	 1.985162650	 1.150842931
H	 0.799032890	 0.920577789	 2.194253951
H	 -0.948181318	 0.743185342	 2.143717090
C	 0.063883749	 -0.077286960	 0.468665912
O	 -0.073192825	 -1.270166365	 0.708073786
N	 0.360308345	 0.401445577	 -0.771306425
H	 0.482266736	 1.391359668	 -0.881162753
C	 0.602605470	 -0.474325686	 -1.896195944
H	 0.412388786	 -1.487601936	 -1.556128168
H	 -0.065845141	 -0.242530564	 -2.723019306
H	 1.634009737	 -0.404066139	 -2.238712882
C	 -3.984425231	 2.339096106	 2.473504106
H	 -2.964712575	 2.665697668	 2.680278814
H	 -4.588387674	 3.233830134	 2.321023656
H	 -4.357294503	 1.830848730	 3.361426412
C	 -4.029620775	 1.437287896	 1.246669655
H	 -5.060081348	 1.125375270	 1.061099777
H	 -3.457054603	 0.525356836	 1.426920529
C	 -3.488348000	 2.124408659	 0.000000000
H	 -4.040924197	 3.053267276	 -0.173753160
H	 -2.447374411	 2.417399143	 0.171358454
C	 -3.562421723	 1.252307346	 -1.245986300
H	 -4.604606874	 0.980834950	 -1.429330353
H	 -3.027787273	 0.319398129	 -1.057521370
C	 -2.990805471	 1.947867569	 -2.474213106
H	 -1.944118311	 2.209561675	 -2.314330150
H	 -3.048858387	 1.317746100	 -3.361089505
H	 -3.531752132	 2.870479837	 -2.685777519
