29
0  1  0  1  0  1  12  17 -2.34284 -2.03806 -2.17030 -2.47507 -2.29334 -2.40050  2.61961  2.60737  2.60241 -2.30879 -2.15969  6.08311 -0.92127 -5.31094
C	 -0.453161546	 1.066092272	 1.635660131
H	 -0.538979689	 2.076714925	 1.242319753
H	 0.418258478	 1.012130064	 2.285730773
H	 -1.328955730	 0.834737617	 2.235193912
C	 -0.316890663	 0.014265315	 0.560142734
O	 -0.453967237	 -1.178614090	 0.799550608
N	 -0.020466067	 0.492997852	 -0.679829603
H	 0.101492324	 1.482911943	 -0.789685931
C	 0.221831058	 -0.382773411	 -1.804719122
H	 0.031614374	 -1.396049661	 -1.464651346
H	 -0.446619553	 -0.150978289	 -2.631542484
H	 1.253235325	 -0.312513864	 -2.147236060
C	 -3.274603996	 0.252352966	 4.262669419
H	 -2.547854774	 1.045054543	 4.081843427
H	 -4.191247252	 0.725234142	 4.615824392
H	 -2.890217227	 -0.374236810	 5.066027980
C	 -3.531423470	 -0.551233625	 2.994317810
H	 -4.261991710	 -1.336588170	 3.201833942
H	 -2.616995672	 -1.054706004	 2.674508456
C	 -4.046335734	 0.314466798	 1.852072423
H	 -4.949852041	 0.842593858	 2.173084939
H	 -3.306794916	 1.088690795	 1.622966032
C	 -4.347253231	 -0.477831955	 0.587066169
H	 -5.103013125	 -1.234026522	 0.811696871
H	 -3.448083388	 -1.018437811	 0.285550775
C	 -4.833840856	 0.410348994	 -0.550236488
H	 -4.082200880	 1.160326318	 -0.799579096
H	 -5.047968143	 -0.164378664	 -1.450686697
H	 -5.744835889	 0.938881325	 -0.268566802
