29
0  1  0  1  0  1  12  17 -1.53304 -1.44213 -1.46849 -1.55940 -1.51875 -1.54274  0.31955  0.31706  0.31589 -1.52301 -0.40396  0.94126 -0.14796 -1.91235
C	 -0.032164963	 1.066043998	 1.635686905
H	 -0.117983106	 2.076666651	 1.242346527
H	 0.839255061	 1.012081790	 2.285757547
H	 -0.907959147	 0.834689343	 2.235220686
C	 0.104105920	 0.014217041	 0.560169508
O	 -0.032970654	 -1.178662364	 0.799577382
N	 0.400530516	 0.492949578	 -0.679802829
H	 0.522488907	 1.482863669	 -0.789659157
C	 0.642827641	 -0.382821685	 -1.804692348
H	 0.452610957	 -1.396097935	 -1.464624572
H	 -0.025622970	 -0.151026563	 -2.631515710
H	 1.674231908	 -0.312562138	 -2.147209286
C	 -6.151827443	 0.252352966	 0.021565365
H	 -5.631852929	 1.045054543	 0.560535657
H	 -6.915990249	 0.725234142	 -0.595693494
H	 -6.655362980	 -0.374236810	 0.756133352
C	 -5.181812466	 -0.551233625	 -0.835022628
H	 -5.726810828	 -1.336588170	 -1.363955217
H	 -4.447635542	 -1.054706004	 -0.203009602
C	 -4.450055075	 0.314466798	 -1.852072423
H	 -5.179818222	 0.842593858	 -2.474034240
H	 -3.881872711	 1.088690795	 -1.326164483
C	 -3.504986272	 -0.477831955	 -2.745177747
H	 -4.077402113	 -1.234026522	 -3.287369663
H	 -2.794281359	 -1.018437811	 -2.117231517
C	 -2.763347091	 0.410348994	 -3.735226320
H	 -2.171590071	 1.160326318	 -3.208958310
H	 -2.090597979	 -0.164378664	 -4.370891094
H	 -3.462777711	 0.938881325	 -4.383336318
