29
0  1  0  1  0  1  12  17 -2.94171 -2.69939 -2.82464 -3.06696 -2.94062 -3.01468  1.89949  1.89654  1.89412 -2.96448 -1.23983  3.75452 -0.41430 -5.06488
C	 -0.252756237	 1.066068135	 1.544169922
H	 -0.338574380	 2.076690788	 1.150829544
H	 0.618663787	 1.012105927	 2.194240564
H	 -1.128550421	 0.834713480	 2.143703703
C	 -0.116485354	 0.014241178	 0.468652525
O	 -0.253561928	 -1.178638227	 0.708060399
N	 0.179939242	 0.492973715	 -0.771319812
H	 0.301897633	 1.482887806	 -0.881176140
C	 0.422236367	 -0.382797548	 -1.896209331
H	 0.232019683	 -1.396073798	 -1.556141555
H	 -0.246214244	 -0.151002426	 -2.723032693
H	 1.453640634	 -0.312538001	 -2.238726269
C	 -3.984425231	 2.339096106	 2.473504106
H	 -2.964712575	 2.665697668	 2.680278814
H	 -4.588387674	 3.233830134	 2.321023656
H	 -4.357294503	 1.830848730	 3.361426412
C	 -4.029620775	 1.437287896	 1.246669655
H	 -5.060081348	 1.125375270	 1.061099777
H	 -3.457054603	 0.525356836	 1.426920529
C	 -3.488348000	 2.124408659	 0.000000000
H	 -4.040924197	 3.053267276	 -0.173753160
H	 -2.447374411	 2.417399143	 0.171358454
C	 -3.562421723	 1.252307346	 -1.245986300
H	 -4.604606874	 0.980834950	 -1.429330353
H	 -3.027787273	 0.319398129	 -1.057521370
C	 -2.990805471	 1.947867569	 -2.474213106
H	 -1.944118311	 2.209561675	 -2.314330150
H	 -3.048858387	 1.317746100	 -3.361089505
H	 -3.531752132	 2.870479837	 -2.685777519
