29
0  1  0  1  0  1  12  17 -0.63072 -0.30252 -0.44697 -0.77517 -0.55386 -0.68400  4.67191  4.66572  4.66052 -0.37450 -3.16957  9.44211 -1.06331 -5.58372
C	 -0.693938786	 1.066116408	 1.361135956
H	 -0.779756929	 2.076739061	 0.967795578
H	 0.177481238	 1.012154200	 2.011206598
H	 -1.569732970	 0.834761753	 1.960669737
C	 -0.557667903	 0.014289451	 0.285618559
O	 -0.694744477	 -1.178589954	 0.525026433
N	 -0.261243307	 0.493021988	 -0.954353778
H	 -0.139284916	 1.482936079	 -1.064210106
C	 -0.018946182	 -0.382749275	 -2.079243297
H	 -0.209162866	 -1.396025525	 -1.739175521
H	 -0.687396793	 -0.150954153	 -2.906066659
H	 1.012458085	 -0.312489728	 -2.421760235
C	 -6.151827443	 0.252352966	 0.021565365
H	 -5.631852929	 1.045054543	 0.560535657
H	 -6.915990249	 0.725234142	 -0.595693494
H	 -6.655362980	 -0.374236810	 0.756133352
C	 -5.181812466	 -0.551233625	 -0.835022628
H	 -5.726810828	 -1.336588170	 -1.363955217
H	 -4.447635542	 -1.054706004	 -0.203009602
C	 -4.450055075	 0.314466798	 -1.852072423
H	 -5.179818222	 0.842593858	 -2.474034240
H	 -3.881872711	 1.088690795	 -1.326164483
C	 -3.504986272	 -0.477831955	 -2.745177747
H	 -4.077402113	 -1.234026522	 -3.287369663
H	 -2.794281359	 -1.018437811	 -2.117231517
C	 -2.763347091	 0.410348994	 -3.735226320
H	 -2.171590071	 1.160326318	 -3.208958310
H	 -2.090597979	 -0.164378664	 -4.370891094
H	 -3.462777711	 0.938881325	 -4.383336318
