29
0  1  0  1  0  1  12  17 -1.40918 -0.99738 -1.19224 -1.60405 -1.34207 -1.49616  6.11875  6.11343  6.10719 -1.37814 -3.76760 11.90730 -1.43244 -8.08540
C	 -2.996905475	 1.066116697	 -1.544143147
H	 -2.911087332	 2.076739350	 -1.150802769
H	 -3.868325498	 1.012154489	 -2.194213789
H	 -2.121111291	 0.834762042	 -2.143676928
C	 -3.133176357	 0.014289740	 -0.468625750
O	 -2.996099783	 -1.178589665	 -0.708033624
N	 -3.429600954	 0.493022277	 0.771346587
H	 -3.551559345	 1.482936368	 0.881202915
C	 -3.671898078	 -0.382748986	 1.896236106
H	 -3.481681395	 -1.396025236	 1.556168330
H	 -3.003447468	 -0.150953864	 2.723059468
H	 -4.703302346	 -0.312489439	 2.238753044
C	 0.821814429	 0.509018974	 -2.473504106
H	 -0.197898227	 0.835620535	 -2.680278814
H	 1.425776872	 1.403753002	 -2.321023656
H	 1.194683701	 0.000771597	 -3.361426412
C	 0.867009973	 -0.392789236	 -1.246669655
H	 1.897470546	 -0.704701863	 -1.061099777
H	 0.294443801	 -1.304720296	 -1.426920529
C	 0.325737198	 0.294331526	 0.000000000
H	 0.878313395	 1.223190143	 0.173753160
H	 -0.715236392	 0.587322010	 -0.171358454
C	 0.399810921	 -0.577769786	 1.245986300
H	 1.441996073	 -0.849242182	 1.429330353
H	 -0.134823528	 -1.510679003	 1.057521370
C	 -0.171805331	 0.117790437	 2.474213106
H	 -1.218492491	 0.379484543	 2.314330150
H	 -0.113752415	 -0.512331033	 3.361089505
H	 0.369141330	 1.040402704	 2.685777519
