29
0  1  0  1  0  1  12  17  8.41415  9.33532  8.68530  7.76413  8.48252  8.05668 22.47692 22.46918 22.44425  8.39964 -12.94873 42.11645 -5.17961 -15.58847
C	 -2.586412922	 1.066165259	 -1.544116372
H	 -2.500594779	 2.076787912	 -1.150775994
H	 -3.457832945	 1.012203051	 -2.194187014
H	 -1.710618738	 0.834810604	 -2.143650153
C	 -2.722683804	 0.014338302	 -0.468598975
O	 -2.585607230	 -1.178541103	 -0.708006849
N	 -3.019108401	 0.493070839	 0.771373362
H	 -3.141066792	 1.482984930	 0.881229690
C	 -3.261405525	 -0.382700424	 1.896262881
H	 -3.071188842	 -1.395976674	 1.556195105
H	 -2.592954915	 -0.150905302	 2.723086243
H	 -4.292809793	 -0.312440877	 2.238779819
C	 0.821814429	 0.509018974	 -2.473504106
H	 -0.197898227	 0.835620535	 -2.680278814
H	 1.425776872	 1.403753002	 -2.321023656
H	 1.194683701	 0.000771597	 -3.361426412
C	 0.867009973	 -0.392789236	 -1.246669655
H	 1.897470546	 -0.704701863	 -1.061099777
H	 0.294443801	 -1.304720296	 -1.426920529
C	 0.325737198	 0.294331526	 0.000000000
H	 0.878313395	 1.223190143	 0.173753160
H	 -0.715236392	 0.587322010	 -0.171358454
C	 0.399810921	 -0.577769786	 1.245986300
H	 1.441996073	 -0.849242182	 1.429330353
H	 -0.134823528	 -1.510679003	 1.057521370
C	 -0.171805331	 0.117790437	 2.474213106
H	 -1.218492491	 0.379484543	 2.314330150
H	 -0.113752415	 -0.512331033	 3.361089505
H	 0.369141330	 1.040402704	 2.685777519
