29
0  1  0  1  0  1  12  17 -1.41829 -1.23828 -1.26804 -1.44805 -1.34180 -1.40453  1.75393  1.74809  1.74501 -1.40273 -1.25085  3.82835 -0.60360 -3.37663
C	 -3.167204279	 1.066092272	 -1.544156274
H	 -3.081386136	 2.076714925	 -1.150815896
H	 -4.038624302	 1.012130064	 -2.194226916
H	 -2.291410095	 0.834737617	 -2.143690055
C	 -3.303475161	 0.014265315	 -0.468638877
O	 -3.166398587	 -1.178614090	 -0.708046751
N	 -3.599899758	 0.492997852	 0.771333460
H	 -3.721858149	 1.482911943	 0.881189788
C	 -3.842196882	 -0.382773411	 1.896222979
H	 -3.651980199	 -1.396049661	 1.556155203
H	 -3.173746272	 -0.150978289	 2.723046341
H	 -4.873601150	 -0.312513864	 2.238739917
C	 0.410218543	 0.252352966	 -2.432592287
H	 -0.316530679	 1.045054543	 -2.251766295
H	 1.326861799	 0.725234142	 -2.785747260
H	 0.025831774	 -0.374236810	 -3.235950847
C	 0.667038017	 -0.551233625	 -1.164240678
H	 1.397606256	 -1.336588170	 -1.371756810
H	 -0.247389782	 -1.054706004	 -0.844431324
C	 1.181950281	 0.314466798	 -0.021995290
H	 2.085466588	 0.842593858	 -0.343007806
H	 0.442409463	 1.088690795	 0.207111101
C	 1.482867778	 -0.477831955	 1.243010963
H	 2.238627672	 -1.234026522	 1.018380261
H	 0.583697935	 -1.018437811	 1.544526357
C	 1.969455403	 0.410348994	 2.380313621
H	 1.217815427	 1.160326318	 2.629656228
H	 2.183582689	 -0.164378664	 3.280763830
H	 2.880450436	 0.938881325	 2.098643935
