29
0  1  0  1  0  1  12  17 -2.00643 -1.91687 -1.96143 -2.05099 -2.02108 -2.03866  0.27213  0.27171  0.27103 -2.07691 -0.36013  0.83843 -0.15809 -2.39711
C	 -3.817890581	 1.066019573	 -1.544196697
H	 -3.732072438	 2.076642226	 -1.150856319
H	 -4.689310604	 1.012057365	 -2.194267339
H	 -2.942096397	 0.834664918	 -2.143730478
C	 -3.954161463	 0.014192616	 -0.468679300
O	 -3.817084889	 -1.178686789	 -0.708087174
N	 -4.250586060	 0.492925153	 0.771293037
H	 -4.372544451	 1.482839244	 0.881149365
C	 -4.492883184	 -0.382846110	 1.896182556
H	 -4.302666501	 -1.396122360	 1.556114780
H	 -3.824432574	 -0.151050988	 2.723005918
H	 -5.524287452	 -0.312586563	 2.238699494
C	 0.821814429	 0.509018974	 -2.473504106
H	 -0.197898227	 0.835620535	 -2.680278814
H	 1.425776872	 1.403753002	 -2.321023656
H	 1.194683701	 0.000771597	 -3.361426412
C	 0.867009973	 -0.392789236	 -1.246669655
H	 1.897470546	 -0.704701863	 -1.061099777
H	 0.294443801	 -1.304720296	 -1.426920529
C	 0.325737198	 0.294331526	 0.000000000
H	 0.878313395	 1.223190143	 0.173753160
H	 -0.715236392	 0.587322010	 -0.171358454
C	 0.399810921	 -0.577769786	 1.245986300
H	 1.441996073	 -0.849242182	 1.429330353
H	 -0.134823528	 -1.510679003	 1.057521370
C	 -0.171805331	 0.117790437	 2.474213106
H	 -1.218492491	 0.379484543	 2.314330150
H	 -0.113752415	 -0.512331033	 3.361089505
H	 0.369141330	 1.040402704	 2.685777519
