29
0  1  0  1  0  1  12  17 -1.67162 -1.58523 -1.61247 -1.69887 -1.65858 -1.68204  0.35056  0.34925  0.34885 -1.71208 -0.37971  0.94725 -0.15612 -2.12351
C	 -3.654676765	 1.066043998	 -1.544183049
H	 -3.568858622	 2.076666651	 -1.150842671
H	 -4.526096788	 1.012081790	 -2.194253691
H	 -2.778882581	 0.834689343	 -2.143716830
C	 -3.790947647	 0.014217041	 -0.468665652
O	 -3.653871073	 -1.178662364	 -0.708073526
N	 -4.087372244	 0.492949578	 0.771306685
H	 -4.209330635	 1.482863669	 0.881163013
C	 -4.329669368	 -0.382821685	 1.896196204
H	 -4.139452685	 -1.396097935	 1.556128428
H	 -3.661218758	 -0.151026563	 2.723019566
H	 -5.361073636	 -0.312562138	 2.238713142
C	 3.025422436	 0.252352966	 -1.851642497
H	 2.505447922	 1.045054543	 -2.390612790
H	 3.789585242	 0.725234142	 -1.234383638
H	 3.528957973	 -0.374236810	 -2.586210484
C	 2.055407459	 -0.551233625	 -0.995054504
H	 2.600405820	 -1.336588170	 -0.466121916
H	 1.321230534	 -1.054706004	 -1.627067531
C	 1.323650068	 0.314466798	 0.021995290
H	 2.053413215	 0.842593858	 0.643957108
H	 0.755467704	 1.088690795	 -0.503912649
C	 0.378581265	 -0.477831955	 0.915100614
H	 0.950997106	 -1.234026522	 1.457292531
H	 -0.332123648	 -1.018437811	 0.287154385
C	 -0.363057916	 0.410348994	 1.905149188
H	 -0.954814936	 1.160326318	 1.378881178
H	 -1.035807029	 -0.164378664	 2.540813962
H	 0.336372704	 0.938881325	 2.553259186
