29
0  1  0  1  0  1  12  17 -2.41048 -2.09589 -2.30024 -2.61483 -2.41762 -2.53343  3.32972  3.32226  3.31799 -2.44323 -2.51946  7.12047 -0.89238 -6.15185
C	 -3.202185994	 1.066092937	 -1.544156535
H	 -3.116367851	 2.076715590	 -1.150816157
H	 -4.073606017	 1.012130729	 -2.194227177
H	 -2.326391810	 0.834738282	 -2.143690316
C	 -3.338456876	 0.014265980	 -0.468639138
O	 -3.201380302	 -1.178613425	 -0.708047012
N	 -3.634881473	 0.492998517	 0.771333199
H	 -3.756839864	 1.482912608	 0.881189527
C	 -3.877178597	 -0.382772746	 1.896222718
H	 -3.686961914	 -1.396048996	 1.556154942
H	 -3.208727987	 -0.150977624	 2.723046080
H	 -4.908582865	 -0.312513199	 2.238739656
C	 1.073543025	 -0.071930816	 -2.473504106
H	 0.846531946	 0.974467030	 -2.680278814
H	 2.150386644	 -0.147610620	 -2.321023656
H	 0.819822521	 -0.648968766	 -3.361426412
C	 0.315151978	 -0.561975410	 -1.246669655
H	 0.560258006	 -1.610336757	 -1.061099777
H	 -0.760886573	 -0.522084089	 -1.426920529
C	 0.639579626	 0.250340945	 0.000000000
H	 1.720282883	 0.236225229	 0.173753160
H	 0.372830033	 1.298345760	 -0.171358454
C	 -0.078645404	 -0.249859437	 1.245986300
H	 0.207345181	 -1.288154452	 1.429330353
H	 -1.153885709	 -0.253307031	 1.057521370
C	 0.237919293	 0.592954870	 2.474213106
H	 -0.058790543	 1.630259593	 2.314330150
H	 -0.278755449	 0.227618835	 3.361089505
H	 1.307398285	 0.585787453	 2.685777519
