29
0  1  0  1  0  1  12  17 49.88068 52.84356 49.77338 46.81050 49.39026 47.85436 83.68928 83.67416 83.56872 49.24220 -59.38515 164.21338 -16.73389 -38.85213
C	 1.465333649	 1.077873437	 2.062916785
H	 1.045318951	 2.079445622	 2.125209349
H	 2.040564415	 0.991911670	 1.142809858
H	 2.144844802	 0.917221242	 2.895044569
C	 0.419879778	 -0.012251197	 2.080290866
O	 0.711963994	 -1.187085230	 2.263373359
N	 -0.856886125	 0.410282871	 1.866007016
H	 -1.011528843	 1.387421569	 1.698204261
C	 -1.966711681	 -0.511972875	 1.772245591
H	 -1.576213298	 -1.501399931	 1.989276353
H	 -2.741449041	 -0.265984251	 2.495753496
H	 -2.397827785	 -0.513528755	 0.772152843
C	 2.664911170	 0.465717102	 4.903081073
H	 2.781750454	 1.220132997	 4.124336249
H	 2.578800799	 0.990603425	 5.854737130
H	 3.577002612	 -0.128524806	 4.929889082
C	 1.436638945	 -0.397670409	 4.645529523
H	 1.342069592	 -1.143124411	 5.438580358
H	 1.553059075	 -0.951134737	 3.711685720
C	 0.154101099	 0.420943539	 4.580228172
H	 0.042530780	 0.998678422	 5.503311816
H	 0.233335247	 1.153758447	 3.770575519
C	 -1.090255190	 -0.429391695	 4.363348274
H	 -1.181057155	 -1.143878182	 5.184765499
H	 -0.962448184	 -1.018329425	 3.453133821
C	 -2.357093685	 0.410899811	 4.273233548
H	 -2.290180449	 1.117950793	 3.445464315
H	 -3.242435902	 -0.205117680	 4.119400641
H	 -2.507449728	 0.987110901	 5.186453142
