29
0  1  0  1  0  1  12  17 -0.45169 -0.09296 -0.22235 -0.58108 -0.32735 -0.47791  5.54787  5.54316  5.53397 -0.32811 -3.62573 10.76378 -1.06845 -6.39771
C	 -2.912840554	 1.066116408	 -1.544143669
H	 -2.827022411	 2.076739061	 -1.150803291
H	 -3.784260577	 1.012154200	 -2.194214311
H	 -2.037046370	 0.834761753	 -2.143677450
C	 -3.049111436	 0.014289451	 -0.468626272
O	 -2.912034862	 -1.178589954	 -0.708034146
N	 -3.345536033	 0.493021988	 0.771346065
H	 -3.467494424	 1.482936079	 0.881202393
C	 -3.587833157	 -0.382749275	 1.896235584
H	 -3.397616474	 -1.396025525	 1.556167808
H	 -2.919382547	 -0.150954153	 2.723058946
H	 -4.619237425	 -0.312489728	 2.238752522
C	 3.025422436	 0.252352966	 -1.851642497
H	 2.505447922	 1.045054543	 -2.390612790
H	 3.789585242	 0.725234142	 -1.234383638
H	 3.528957973	 -0.374236810	 -2.586210484
C	 2.055407459	 -0.551233625	 -0.995054504
H	 2.600405820	 -1.336588170	 -0.466121916
H	 1.321230534	 -1.054706004	 -1.627067531
C	 1.323650068	 0.314466798	 0.021995290
H	 2.053413215	 0.842593858	 0.643957108
H	 0.755467704	 1.088690795	 -0.503912649
C	 0.378581265	 -0.477831955	 0.915100614
H	 0.950997106	 -1.234026522	 1.457292531
H	 -0.332123648	 -1.018437811	 0.287154385
C	 -0.363057916	 0.410348994	 1.905149188
H	 -0.954814936	 1.160326318	 1.378881178
H	 -1.035807029	 -0.164378664	 2.540813962
H	 0.336372704	 0.938881325	 2.553259186
