29
0  1  0  1  0  1  12  17 41.14248 43.29048 40.83813 38.69013 40.55102 39.46127 66.88505 66.87711 66.84411 39.54512 -49.01467 130.85838 -13.13184 -29.16675
C	 -2.176125825	 1.066216949	 -1.544089597
H	 -2.090307682	 2.076839602	 -1.150749219
H	 -3.047545848	 1.012254741	 -2.194160239
H	 -1.300331641	 0.834862294	 -2.143623378
C	 -2.312396707	 0.014389992	 -0.468572200
O	 -2.175320133	 -1.178489413	 -0.707980074
N	 -2.608821304	 0.493122529	 0.771400137
H	 -2.730779695	 1.483036620	 0.881256465
C	 -2.851118428	 -0.382648734	 1.896289656
H	 -2.660901745	 -1.395924984	 1.556221880
H	 -2.182667818	 -0.150853612	 2.723113018
H	 -3.882522696	 -0.312389187	 2.238806594
C	 1.073543025	 -0.071930816	 -2.473504106
H	 0.846531946	 0.974467030	 -2.680278814
H	 2.150386644	 -0.147610620	 -2.321023656
H	 0.819822521	 -0.648968766	 -3.361426412
C	 0.315151978	 -0.561975410	 -1.246669655
H	 0.560258006	 -1.610336757	 -1.061099777
H	 -0.760886573	 -0.522084089	 -1.426920529
C	 0.639579626	 0.250340945	 0.000000000
H	 1.720282883	 0.236225229	 0.173753160
H	 0.372830033	 1.298345760	 -0.171358454
C	 -0.078645404	 -0.249859437	 1.245986300
H	 0.207345181	 -1.288154452	 1.429330353
H	 -1.153885709	 -0.253307031	 1.057521370
C	 0.237919293	 0.592954870	 2.474213106
H	 -0.058790543	 1.630259593	 2.314330150
H	 -0.278755449	 0.227618835	 3.361089505
H	 1.307398285	 0.585787453	 2.685777519
