29
0  1  0  1  0  1  12  17  8.72785  9.87886  9.00783  7.85682  8.78096  8.22569 23.47136 23.45504 23.40525  9.20626 -19.48112 52.52414 -6.97126 -16.86549
C	 -0.975911444	 0.700151918	 1.544116372
H	 -1.061729587	 1.710774571	 1.150775994
H	 -0.104491420	 0.646189710	 2.194187014
H	 -1.851705628	 0.468797263	 2.143650153
C	 -0.839640561	 -0.351675039	 0.468598975
O	 -0.976717135	 -1.544554444	 0.708006849
N	 -0.543215965	 0.127057498	 -0.771373362
H	 -0.421257574	 1.116971589	 -0.881229690
C	 -0.300918840	 -0.748713765	 -1.896262881
H	 -0.491135524	 -1.761990015	 -1.556195105
H	 -0.969369451	 -0.516918643	 -2.723086243
H	 0.730485427	 -0.678454218	 -2.238779819
C	 -4.245232650	 -1.902007948	 2.473504106
H	 -4.018221571	 -0.855610102	 2.680278814
H	 -5.322076269	 -1.977687752	 2.321023656
H	 -3.991512146	 -2.479045898	 3.361426412
C	 -3.486841603	 -2.392052542	 1.246669655
H	 -3.731947631	 -3.440413889	 1.061099777
H	 -2.410803052	 -2.352161222	 1.426920529
C	 -3.811269251	 -1.579736187	 0.000000000
H	 -4.891972508	 -1.593851903	 -0.173753160
H	 -3.544519659	 -0.531731372	 0.171358454
C	 -3.093044221	 -2.079936570	 -1.245986300
H	 -3.379034805	 -3.118231584	 -1.429330353
H	 -2.017803915	 -2.083384163	 -1.057521370
C	 -3.409608918	 -1.237122263	 -2.474213106
H	 -3.112899082	 -0.199817539	 -2.314330150
H	 -2.892934176	 -1.602458297	 -3.361089505
H	 -4.479087910	 -1.244289679	 -2.685777519
