29
0  1  0  1  0  1  12  17 -2.59783 -2.40794 -2.48083 -2.67073 -2.58053 -2.63340  1.49089  1.48999  1.48828 -2.65253 -1.10092  3.21273 -0.43672 -4.32762
C	 -3.407398028	 1.066068135	 -1.544169922
H	 -3.321579885	 2.076690788	 -1.150829544
H	 -4.278818051	 1.012105927	 -2.194240564
H	 -2.531603844	 0.834713480	 -2.143703703
C	 -3.543668910	 0.014241178	 -0.468652525
O	 -3.406592336	 -1.178638227	 -0.708060399
N	 -3.840093507	 0.492973715	 0.771319812
H	 -3.962051898	 1.482887806	 0.881176140
C	 -4.082390631	 -0.382797548	 1.896209331
H	 -3.892173948	 -1.396073798	 1.556141555
H	 -3.413940021	 -0.151002426	 2.723032693
H	 -5.113794899	 -0.312538001	 2.238726269
C	 0.821814429	 0.509018974	 -2.473504106
H	 -0.197898227	 0.835620535	 -2.680278814
H	 1.425776872	 1.403753002	 -2.321023656
H	 1.194683701	 0.000771597	 -3.361426412
C	 0.867009973	 -0.392789236	 -1.246669655
H	 1.897470546	 -0.704701863	 -1.061099777
H	 0.294443801	 -1.304720296	 -1.426920529
C	 0.325737198	 0.294331526	 0.000000000
H	 0.878313395	 1.223190143	 0.173753160
H	 -0.715236392	 0.587322010	 -0.171358454
C	 0.399810921	 -0.577769786	 1.245986300
H	 1.441996073	 -0.849242182	 1.429330353
H	 -0.134823528	 -1.510679003	 1.057521370
C	 -0.171805331	 0.117790437	 2.474213106
H	 -1.218492491	 0.379484543	 2.314330150
H	 -0.113752415	 -0.512331033	 3.361089505
H	 0.369141330	 1.040402704	 2.685777519
