29
0  1  0  1  0  1  12  17 -2.24858 -2.13187 -2.19952 -2.31623 -2.26858 -2.29636  0.50043  0.49913  0.49859 -2.29612 -0.35050  1.06316 -0.15991 -2.84887
C	 0.107981970	 0.883011860	 1.544196697
H	 0.022163827	 1.893634513	 1.150856319
H	 0.979401994	 0.829049652	 2.194267339
H	 -0.767812214	 0.651657205	 2.143730478
C	 0.244252853	 -0.168815097	 0.468679300
O	 0.107176279	 -1.361694502	 0.708087174
N	 0.540677449	 0.309917440	 -0.771293037
H	 0.662635840	 1.299831531	 -0.881149365
C	 0.782974574	 -0.565853823	 -1.896182556
H	 0.592757890	 -1.579130073	 -1.556114780
H	 0.114523963	 -0.334058701	 -2.723005918
H	 1.814378841	 -0.495594276	 -2.238699494
C	 -3.984425231	 2.339096106	 2.473504106
H	 -2.964712575	 2.665697668	 2.680278814
H	 -4.588387674	 3.233830134	 2.321023656
H	 -4.357294503	 1.830848730	 3.361426412
C	 -4.029620775	 1.437287896	 1.246669655
H	 -5.060081348	 1.125375270	 1.061099777
H	 -3.457054603	 0.525356836	 1.426920529
C	 -3.488348000	 2.124408659	 0.000000000
H	 -4.040924197	 3.053267276	 -0.173753160
H	 -2.447374411	 2.417399143	 0.171358454
C	 -3.562421723	 1.252307346	 -1.245986300
H	 -4.604606874	 0.980834950	 -1.429330353
H	 -3.027787273	 0.319398129	 -1.057521370
C	 -2.990805471	 1.947867569	 -2.474213106
H	 -1.944118311	 2.209561675	 -2.314330150
H	 -3.048858387	 1.317746100	 -3.361089505
H	 -3.531752132	 2.870479837	 -2.685777519
