29
0  1  0  1  0  1  12  17 -2.80089 -2.08296 -2.62054 -3.33847 -2.83715 -3.13371  8.49674  8.48507  8.46910 -2.57109 -7.04303 18.99613 -2.24053 -12.28366
C	 1.403238504	 1.034276054	 1.334855384
H	 0.983223806	 2.035848239	 1.397147948
H	 1.978469270	 0.948314287	 0.414748457
H	 2.082749657	 0.873623859	 2.166983168
C	 0.357784633	 -0.055848580	 1.352229465
O	 0.649868849	 -1.230682613	 1.535311958
N	 -0.918981270	 0.366685488	 1.137945615
H	 -1.073623988	 1.343824186	 0.970142860
C	 -2.028806826	 -0.555570258	 1.044184190
H	 -1.638308443	 -1.544997314	 1.261214952
H	 -2.803544186	 -0.309581634	 1.767692095
H	 -2.459922930	 -0.557126138	 0.044091442
C	 2.664911170	 0.465717102	 4.903081073
H	 2.781750454	 1.220132997	 4.124336249
H	 2.578800799	 0.990603425	 5.854737130
H	 3.577002612	 -0.128524806	 4.929889082
C	 1.436638945	 -0.397670409	 4.645529523
H	 1.342069592	 -1.143124411	 5.438580358
H	 1.553059075	 -0.951134737	 3.711685720
C	 0.154101099	 0.420943539	 4.580228172
H	 0.042530780	 0.998678422	 5.503311816
H	 0.233335247	 1.153758447	 3.770575519
C	 -1.090255190	 -0.429391695	 4.363348274
H	 -1.181057155	 -1.143878182	 5.184765499
H	 -0.962448184	 -1.018329425	 3.453133821
C	 -2.357093685	 0.410899811	 4.273233548
H	 -2.290180449	 1.117950793	 3.445464315
H	 -3.242435902	 -0.205117680	 4.119400641
H	 -2.507449728	 0.987110901	 5.186453142
