24
0  1  0  1  0  1  12  12 -1.60634 -1.52891 -1.88293 -1.96036 -1.90848 -1.93822  0.12571  0.12592  0.12653 -1.70292 -0.73240  1.20387 -0.22247 -1.95193
C	 -0.067410173	 1.205596888	 -0.696637913
H	 -0.120028937	 2.140777046	 -1.237262459
C	 -0.018978604	 1.207232298	 0.696637913
H	 -0.035334965	 2.143612198	 1.237393693
C	 0.048200856	 0.001724159	 1.393187980
H	 0.081645376	 0.002750518	 2.473977277
C	 0.069033827	 -1.205291536	 0.696563401
H	 0.122936930	 -2.140103623	 1.237854679
C	 0.019421282	 -1.207345219	 -0.696537374
H	 0.034270964	 -2.143700777	 -1.237630261
C	 -0.049660668	 -0.001895154	 -1.393252783
H	 -0.090716706	 -0.003590798	 -2.473870871
C	 -4.052508923	 1.522281546	 0.242132759
H	 -3.008850547	 1.376334455	 -0.000003527
C	 -4.882190806	 0.419445094	 0.437905391
H	 -4.476120104	 -0.578843147	 0.345764305
C	 -6.227866108	 0.602907339	 0.751445910
H	 -6.870577725	 -0.253779249	 0.903181625
C	 -6.746028168	 1.891527839	 0.869944294
H	 -7.790086787	 2.034724724	 1.113398952
C	 -5.918124296	 2.995572837	 0.674428921
H	 -6.320100422	 3.995507654	 0.766312118
C	 -4.572635093	 2.810079848	 0.360514864
H	 -3.930051865	 3.667006168	 0.208775098
