24
0  1  0  1  0  1  12  12 -1.92679 -1.77940 -2.35952 -2.50691 -2.40355 -2.46323  1.16018  1.15912  1.15929 -2.01342 -1.37258  3.14934 -0.43490 -3.35529
C	 -2.435012564	 1.205596888	 0.696637913
H	 -2.382393800	 2.140777046	 1.237262459
C	 -2.483444133	 1.207232298	 -0.696637913
H	 -2.467087772	 2.143612198	 -1.237393693
C	 -2.550623593	 0.001724159	 -1.393187980
H	 -2.584068113	 0.002750518	 -2.473977277
C	 -2.571456564	 -1.205291536	 -0.696563401
H	 -2.625359667	 -2.140103623	 -1.237854679
C	 -2.521844019	 -1.207345219	 0.696537374
H	 -2.536693701	 -2.143700777	 1.237630261
C	 -2.452762069	 -0.001895154	 1.393252783
H	 -2.411706031	 -0.003590798	 2.473870871
C	 1.534788454	 -0.830861121	 -0.242136286
H	 0.886565378	 0.000000000	 0.000000000
C	 0.994545012	 -2.100804935	 -0.437908918
H	 -0.073033316	 -2.248281512	 -0.345767832
C	 1.826265629	 -3.174462810	 -0.751449437
H	 1.405709088	 -4.159410691	 -0.903185152
C	 3.201324747	 -2.978894066	 -0.869947821
H	 3.847366196	 -3.811476911	 -1.113402479
C	 3.743503826	 -1.709885782	 -0.674432448
H	 4.810460842	 -1.558039911	 -0.766315645
C	 2.910117583	 -0.637404447	 -0.360518391
H	 3.330945931	 0.347552113	 -0.208778625
