24
0  1  0  1  0  1  12  12 -2.65127 -2.34106 -3.49043 -3.80064 -3.56898 -3.70316  2.84364  2.83664  2.83603 -2.74332 -3.01904  7.23839 -0.93421 -6.02847
C	 0.729188666	 1.113101217	 0.326728253
H	 1.303215897	 2.014222336	 0.159160270
C	 1.375087369	 -0.119366352	 0.412776946
H	 2.450514736	 -0.174623998	 0.313307203
C	 0.635039807	 -1.280553386	 0.629385409
H	 1.136334479	 -2.236017467	 0.700217157
C	 -0.750985629	 -1.209654296	 0.757890338
H	 -1.324525898	 -2.111412827	 0.924198912
C	 -1.397034430	 0.022670814	 0.673089633
H	 -2.472425369	 0.078488260	 0.773997991
C	 -0.656897314	 1.184296216	 0.458338585
H	 -1.157828445	 2.140587131	 0.395096082
C	 0.138894536	 0.124738461	 3.921429250
H	 0.261020943	 0.350221917	 2.871002816
C	 -0.952187032	 -0.630160150	 4.348765519
H	 -1.672691561	 -0.986674407	 3.625071098
C	 -1.112887013	 -0.924285473	 5.701715586
H	 -1.959994600	 -1.510254037	 6.031963127
C	 -0.181004452	 -0.463232093	 6.630209664
H	 -0.304897948	 -0.691198254	 7.680217163
C	 0.910580647	 0.291869961	 6.204969380
H	 1.633699732	 0.649703141	 6.925352034
C	 1.069384541	 0.585354980	 4.851478063
H	 1.916642459	 1.171429775	 4.521430738
