24
0  1  0  1  0  1  12  12 -2.67373 -2.48317 -3.40542 -3.59598 -3.45538 -3.53727  1.36406  1.36318  1.36175 -2.82592 -1.59961  3.66152 -0.48933 -4.39850
C	 -2.435012564	 1.205596888	 0.696637913
H	 -2.382393800	 2.140777046	 1.237262459
C	 -2.483444133	 1.207232298	 -0.696637913
H	 -2.467087772	 2.143612198	 -1.237393693
C	 -2.550623593	 0.001724159	 -1.393187980
H	 -2.584068113	 0.002750518	 -2.473977277
C	 -2.571456564	 -1.205291536	 -0.696563401
H	 -2.625359667	 -2.140103623	 -1.237854679
C	 -2.521844019	 -1.207345219	 0.696537374
H	 -2.536693701	 -2.143700777	 1.237630261
C	 -2.452762069	 -0.001895154	 1.393252783
H	 -2.411706031	 -0.003590798	 2.473870871
C	 1.020767056	 -0.395434325	 -0.698098517
H	 0.295894473	 0.000000975	 0.000001764
C	 1.067599960	 -1.765359650	 -0.951196270
H	 0.376845988	 -2.426867276	 -0.445993917
C	 1.999527661	 -2.279314336	 -1.851290385
H	 2.034737341	 -3.342582493	 -2.046828015
C	 2.886889057	 -1.422417277	 -2.500438874
H	 3.610211762	 -1.820434447	 -3.199166657
C	 2.841784347	 -0.052334326	 -2.248635951
H	 3.530309320	 0.612646564	 -2.752253606
C	 1.909303653	 0.459768634	 -1.347791241
H	 1.874296096	 1.523180211	 -1.152365629
