24
0  1  0  1  0  1  12  12 -1.41034 -1.18567 -1.98743 -2.21210 -2.04068 -2.13947  2.61568  2.61276  2.61350 -1.47334 -2.63008  6.50512 -0.95424 -4.39413
C	 -0.067410173	 1.205596888	 -0.696637913
H	 -0.120028937	 2.140777046	 -1.237262459
C	 -0.018978604	 1.207232298	 0.696637913
H	 -0.035334965	 2.143612198	 1.237393693
C	 0.048200856	 0.001724159	 1.393187980
H	 0.081645376	 0.002750518	 2.473977277
C	 0.069033827	 -1.205291536	 0.696563401
H	 0.122936930	 -2.140103623	 1.237854679
C	 0.019421282	 -1.207345219	 -0.696537374
H	 0.034270964	 -2.143700777	 -1.237630261
C	 -0.049660668	 -0.001895154	 -1.393252783
H	 -0.090716706	 -0.003590798	 -2.473870871
C	 -3.505545503	 1.272035372	 0.242139813
H	 -2.461887127	 1.126088281	 0.000003527
C	 -4.335227386	 0.169198920	 0.437912445
H	 -3.929156684	 -0.829089321	 0.345771359
C	 -5.680902688	 0.352661165	 0.751452964
H	 -6.323614305	 -0.504025423	 0.903188679
C	 -6.199064748	 1.641281665	 0.869951348
H	 -7.243123367	 1.784478550	 1.113406006
C	 -5.371160876	 2.745326663	 0.674435975
H	 -5.773137002	 3.745261480	 0.766319172
C	 -4.025671673	 2.559833674	 0.360521918
H	 -3.383088445	 3.416759994	 0.208782152
