24
0  1  0  1  0  1  12  12 -2.02573 -1.90585 -2.41728 -2.53717 -2.45151 -2.50040  0.49985  0.50080  0.50229 -2.12611 -1.16314  2.14241 -0.30378 -2.80159
C	 -0.067410173	 1.205596888	 -0.696637913
H	 -0.120028937	 2.140777046	 -1.237262459
C	 -0.018978604	 1.207232298	 0.696637913
H	 -0.035334965	 2.143612198	 1.237393693
C	 0.048200856	 0.001724159	 1.393187980
H	 0.081645376	 0.002750518	 2.473977277
C	 0.069033827	 -1.205291536	 0.696563401
H	 0.122936930	 -2.140103623	 1.237854679
C	 0.019421282	 -1.207345219	 -0.696537374
H	 0.034270964	 -2.143700777	 -1.237630261
C	 -0.049660668	 -0.001895154	 -1.393252783
H	 -0.090716706	 -0.003590798	 -2.473870871
C	 -3.594301411	 -0.395434325	 2.011870454
H	 -2.869428828	 0.000000975	 1.313770173
C	 -3.641134315	 -1.765359650	 2.264968208
H	 -2.950380343	 -2.426867276	 1.759765854
C	 -4.573062015	 -2.279314336	 3.165062322
H	 -4.608271696	 -3.342582493	 3.360599952
C	 -5.460423412	 -1.422417277	 3.814210811
H	 -6.183746117	 -1.820434447	 4.512938594
C	 -5.415318703	 -0.052334326	 3.562407889
H	 -6.103843675	 0.612646564	 4.066025544
C	 -4.482838008	 0.459768634	 2.661563178
H	 -4.447830451	 1.523180211	 2.466137566
