24
0  1  0  1  0  1  12  12 -2.08524 -1.72134 -3.06630 -3.43021 -3.14961 -3.31059  4.11984  4.11444  4.11738 -2.15086 -3.98940  9.94139 -1.26698 -6.83586
C	 -2.435012564	 1.205596888	 0.696637913
H	 -2.382393800	 2.140777046	 1.237262459
C	 -2.483444133	 1.207232298	 -0.696637913
H	 -2.467087772	 2.143612198	 -1.237393693
C	 -2.550623593	 0.001724159	 -1.393187980
H	 -2.584068113	 0.002750518	 -2.473977277
C	 -2.571456564	 -1.205291536	 -0.696563401
H	 -2.625359667	 -2.140103623	 -1.237854679
C	 -2.521844019	 -1.207345219	 0.696537374
H	 -2.536693701	 -2.143700777	 1.237630261
C	 -2.452762069	 -0.001895154	 1.393252783
H	 -2.411706031	 -0.003590798	 2.473870871
C	 0.748785663	 0.145945141	 -0.242139813
H	 -0.294872713	 -0.000001950	 -0.000003527
C	 1.578467546	 -0.956891312	 -0.437912445
H	 1.172396844	 -1.955179553	 -0.345771359
C	 2.924142849	 -0.773429066	 -0.751452964
H	 3.566854465	 -1.630115655	 -0.903188679
C	 3.442304908	 0.515191434	 -0.869951348
H	 4.486363527	 0.658388318	 -1.113406006
C	 2.614401036	 1.619236432	 -0.674435975
H	 3.016377162	 2.619171248	 -0.766319172
C	 1.268911833	 1.433743442	 -0.360521918
H	 0.626328604	 2.290669762	 -0.208782152
