24
0  1  0  1  0  1  12  12 -2.69102 -2.44578 -3.55145 -3.79669 -3.61118 -3.71949  2.19978  2.19720  2.19469 -2.81431 -2.26723  5.40974 -0.66736 -5.28945
C	 -2.435012564	 1.205596888	 0.696637913
H	 -2.382393800	 2.140777046	 1.237262459
C	 -2.483444133	 1.207232298	 -0.696637913
H	 -2.467087772	 2.143612198	 -1.237393693
C	 -2.550623593	 0.001724159	 -1.393187980
H	 -2.584068113	 0.002750518	 -2.473977277
C	 -2.571456564	 -1.205291536	 -0.696563401
H	 -2.625359667	 -2.140103623	 -1.237854679
C	 -2.521844019	 -1.207345219	 0.696537374
H	 -2.536693701	 -2.143700777	 1.237630261
C	 -2.452762069	 -0.001895154	 1.393252783
H	 -2.411706031	 -0.003590798	 2.473870871
C	 0.887540129	 -0.395435300	 -0.698100281
H	 0.162667546	 0.000000000	 0.000000000
C	 0.934373033	 -1.765360625	 -0.951198034
H	 0.243619061	 -2.426868251	 -0.445995681
C	 1.866300734	 -2.279315311	 -1.851292149
H	 1.901510414	 -3.342583468	 -2.046829779
C	 2.753662130	 -1.422418252	 -2.500440638
H	 3.476984835	 -1.820435422	 -3.199168421
C	 2.708557420	 -0.052335301	 -2.248637715
H	 3.397082393	 0.612645589	 -2.752255370
C	 1.776076726	 0.459767659	 -1.347793005
H	 1.741069169	 1.523179236	 -1.152367393
