24
0  1  0  1  0  1  12  12 -2.00521 -1.79681 -2.56770 -2.77610 -2.61752 -2.70926  1.90787  1.90678  1.90664 -2.06219 -2.27519  5.10113 -0.63511 -4.25301
C	 -0.067410173	 1.205596888	 -0.696637913
H	 -0.120028937	 2.140777046	 -1.237262459
C	 -0.018978604	 1.207232298	 0.696637913
H	 -0.035334965	 2.143612198	 1.237393693
C	 0.048200856	 0.001724159	 1.393187980
H	 0.081645376	 0.002750518	 2.473977277
C	 0.069033827	 -1.205291536	 0.696563401
H	 0.122936930	 -2.140103623	 1.237854679
C	 0.019421282	 -1.207345219	 -0.696537374
H	 0.034270964	 -2.143700777	 -1.237630261
C	 -0.049660668	 -0.001895154	 -1.393252783
H	 -0.090716706	 -0.003590798	 -2.473870871
C	 -3.321075021	 -0.395436275	 1.886752844
H	 -2.596202438	 -0.000000975	 1.188652563
C	 -3.367907925	 -1.765361600	 2.139850598
H	 -2.677153953	 -2.426869226	 1.634648244
C	 -4.299835625	 -2.279316286	 3.039944712
H	 -4.335045306	 -3.342584443	 3.235482342
C	 -5.187197022	 -1.422419227	 3.689093201
H	 -5.910519727	 -1.820436397	 4.387820984
C	 -5.142092313	 -0.052336276	 3.437290279
H	 -5.830617285	 0.612644614	 3.940907934
C	 -4.209611618	 0.459766684	 2.536445568
H	 -4.174604061	 1.523178261	 2.341019956
