24
0  1  0  1  0  1  12  12 -2.59849 -2.44127 -3.10197 -3.25919 -3.15490 -3.21484  0.43818  0.43405  0.43488 -2.75570 -1.25607  2.32902 -0.39884 -3.42982
C	 -2.435012564	 1.205596888	 0.696637913
H	 -2.382393800	 2.140777046	 1.237262459
C	 -2.483444133	 1.207232298	 -0.696637913
H	 -2.467087772	 2.143612198	 -1.237393693
C	 -2.550623593	 0.001724159	 -1.393187980
H	 -2.584068113	 0.002750518	 -2.473977277
C	 -2.571456564	 -1.205291536	 -0.696563401
H	 -2.625359667	 -2.140103623	 -1.237854679
C	 -2.521844019	 -1.207345219	 0.696537374
H	 -2.536693701	 -2.143700777	 1.237630261
C	 -2.452762069	 -0.001895154	 1.393252783
H	 -2.411706031	 -0.003590798	 2.473870871
C	 1.239229727	 0.145949041	 -0.242132759
H	 0.195571351	 0.000001950	 0.000003527
C	 2.068911610	 -0.956887412	 -0.437905391
H	 1.662840908	 -1.955175653	 -0.345764305
C	 3.414586913	 -0.773425166	 -0.751445910
H	 4.057298529	 -1.630111755	 -0.903181625
C	 3.932748972	 0.515195334	 -0.869944294
H	 4.976807591	 0.658392218	 -1.113398952
C	 3.104845100	 1.619240332	 -0.674428921
H	 3.506821226	 2.619175148	 -0.766312118
C	 1.759355897	 1.433747342	 -0.360514864
H	 1.116772668	 2.290673662	 -0.208775098
