24
0  1  0  1  0  1  12  12 -1.49584 -1.20570 -2.10109 -2.39123 -2.16406 -2.29679  3.73519  3.73139  3.72808 -1.48362 -3.08826  8.07506 -0.89187 -5.57855
C	 -0.067410173	 1.205596888	 -0.696637913
H	 -0.120028937	 2.140777046	 -1.237262459
C	 -0.018978604	 1.207232298	 0.696637913
H	 -0.035334965	 2.143612198	 1.237393693
C	 0.048200856	 0.001724159	 1.393187980
H	 0.081645376	 0.002750518	 2.473977277
C	 0.069033827	 -1.205291536	 0.696563401
H	 0.122936930	 -2.140103623	 1.237854679
C	 0.019421282	 -1.207345219	 -0.696537374
H	 0.034270964	 -2.143700777	 -1.237630261
C	 -0.049660668	 -0.001895154	 -1.393252783
H	 -0.090716706	 -0.003590798	 -2.473870871
C	 -3.191720730	 -1.956953303	 0.242139813
H	 -2.543497654	 -1.126092181	 0.000003527
C	 -2.651477288	 -3.226897116	 0.437912445
H	 -1.583898960	 -3.374373693	 0.345771359
C	 -3.483197904	 -4.300554991	 0.751452964
H	 -3.062641364	 -5.285502872	 0.903188679
C	 -4.858257023	 -4.104986248	 0.869951348
H	 -5.504298472	 -4.937569092	 1.113406006
C	 -5.400436102	 -2.835977964	 0.674435975
H	 -6.467393118	 -2.684132092	 0.766319172
C	 -4.567049859	 -1.763496628	 0.360521918
H	 -4.987878208	 -0.778540068	 0.208782152
