24
0  1  0  1  0  1  12  12 -2.48530 -2.17166 -3.50399 -3.81762 -3.57391 -3.71636  3.44694  3.44278  3.43909 -2.55715 -3.23054  7.96056 -0.91703 -6.37013
C	 -2.435012564	 1.205596888	 0.696637913
H	 -2.382393800	 2.140777046	 1.237262459
C	 -2.483444133	 1.207232298	 -0.696637913
H	 -2.467087772	 2.143612198	 -1.237393693
C	 -2.550623593	 0.001724159	 -1.393187980
H	 -2.584068113	 0.002750518	 -2.473977277
C	 -2.571456564	 -1.205291536	 -0.696563401
H	 -2.625359667	 -2.140103623	 -1.237854679
C	 -2.521844019	 -1.207345219	 0.696537374
H	 -2.536693701	 -2.143700777	 1.237630261
C	 -2.452762069	 -0.001895154	 1.393252783
H	 -2.411706031	 -0.003590798	 2.473870871
C	 0.754313202	 -0.395436275	 -0.698102045
H	 0.029440619	 -0.000000975	 -0.000001764
C	 0.801146106	 -1.765361600	 -0.951199798
H	 0.110392134	 -2.426869226	 -0.445997445
C	 1.733073807	 -2.279316286	 -1.851293913
H	 1.768283487	 -3.342584443	 -2.046831543
C	 2.620435203	 -1.422419227	 -2.500442402
H	 3.343757908	 -1.820436397	 -3.199170185
C	 2.575330493	 -0.052336276	 -2.248639479
H	 3.263855466	 0.612644614	 -2.752257134
C	 1.642849799	 0.459766684	 -1.347794769
H	 1.607842242	 1.523178261	 -1.152369157
