24
0  1  0  1  0  1  12  12  2.25854  2.76306  1.25518  0.75065  1.17336  0.92725 10.43730 10.43067 10.42657  2.36583 -7.20830 20.58152 -2.35304 -8.65435
C	 -2.435012564	 1.205596888	 0.696637913
H	 -2.382393800	 2.140777046	 1.237262459
C	 -2.483444133	 1.207232298	 -0.696637913
H	 -2.467087772	 2.143612198	 -1.237393693
C	 -2.550623593	 0.001724159	 -1.393187980
H	 -2.584068113	 0.002750518	 -2.473977277
C	 -2.571456564	 -1.205291536	 -0.696563401
H	 -2.625359667	 -2.140103623	 -1.237854679
C	 -2.521844019	 -1.207345219	 0.696537374
H	 -2.536693701	 -2.143700777	 1.237630261
C	 -2.452762069	 -0.001895154	 1.393252783
H	 -2.411706031	 -0.003590798	 2.473870871
C	 0.857101178	 -0.830865021	 -0.242143341
H	 0.208878102	 -0.000003900	 -0.000007055
C	 0.316857736	 -2.100808835	 -0.437915973
H	 -0.750720592	 -2.248285412	 -0.345774887
C	 1.148578353	 -3.174466710	 -0.751456492
H	 0.728021812	 -4.159414591	 -0.903192207
C	 2.523637471	 -2.978897966	 -0.869954876
H	 3.169678920	 -3.811480811	 -1.113409534
C	 3.065816550	 -1.709889682	 -0.674439503
H	 4.132773566	 -1.558043811	 -0.766322700
C	 2.232430307	 -0.637408347	 -0.360525446
H	 2.653258655	 0.347548213	 -0.208785680
