24
0  1  0  1  0  1  12  12  0.84870  1.31815 -0.19147 -0.66092 -0.26918 -0.49673  8.48204  8.47846  8.47590  0.98429 -6.96461 18.04804 -1.98782 -8.11132
C	 -0.067410173	 1.205596888	 -0.696637913
H	 -0.120028937	 2.140777046	 -1.237262459
C	 -0.018978604	 1.207232298	 0.696637913
H	 -0.035334965	 2.143612198	 1.237393693
C	 0.048200856	 0.001724159	 1.393187980
H	 0.081645376	 0.002750518	 2.473977277
C	 0.069033827	 -1.205291536	 0.696563401
H	 0.122936930	 -2.140103623	 1.237854679
C	 0.019421282	 -1.207345219	 -0.696537374
H	 0.034270964	 -2.143700777	 -1.237630261
C	 -0.049660668	 -0.001895154	 -1.393252783
H	 -0.090716706	 -0.003590798	 -2.473870871
C	 -2.911235436	 -0.395439200	 1.699076430
H	 -2.186362853	 -0.000003900	 1.000976149
C	 -2.958068340	 -1.765364525	 1.952174184
H	 -2.267314368	 -2.426872151	 1.446971830
C	 -3.889996040	 -2.279319211	 2.852268298
H	 -3.925205721	 -3.342587368	 3.047805928
C	 -4.777357437	 -1.422422152	 3.501416787
H	 -5.500680142	 -1.820439322	 4.200144570
C	 -4.732252728	 -0.052339201	 3.249613865
H	 -5.420777700	 0.612641689	 3.753231520
C	 -3.799772033	 0.459763759	 2.348769154
H	 -3.764764476	 1.523175336	 2.153343542
