24
0  1  0  1  0  1  12  12 13.01717 13.96221 11.42073 10.47569 11.31174 10.81956 26.33631 26.32882 26.30788 12.92368 -17.18144 49.80956 -5.52469 -14.17975
C	 -2.435012564	 1.205596888	 0.696637913
H	 -2.382393800	 2.140777046	 1.237262459
C	 -2.483444133	 1.207232298	 -0.696637913
H	 -2.467087772	 2.143612198	 -1.237393693
C	 -2.550623593	 0.001724159	 -1.393187980
H	 -2.584068113	 0.002750518	 -2.473977277
C	 -2.571456564	 -1.205291536	 -0.696563401
H	 -2.625359667	 -2.140103623	 -1.237854679
C	 -2.521844019	 -1.207345219	 0.696537374
H	 -2.536693701	 -2.143700777	 1.237630261
C	 -2.452762069	 -0.001895154	 1.393252783
H	 -2.411706031	 -0.003590798	 2.473870871
C	 0.518257540	 -0.830866971	 -0.242146868
H	 -0.129965536	 -0.000005850	 -0.000010582
C	 -0.021985902	 -2.100810785	 -0.437919500
H	 -1.089564230	 -2.248287362	 -0.345778414
C	 0.809734715	 -3.174468660	 -0.751460019
H	 0.389178174	 -4.159416541	 -0.903195734
C	 2.184793833	 -2.978899916	 -0.869958403
H	 2.830835282	 -3.811482761	 -1.113413061
C	 2.726972912	 -1.709891632	 -0.674443030
H	 3.793929928	 -1.558045761	 -0.766326227
C	 1.893586669	 -0.637410297	 -0.360528973
H	 2.314415017	 0.347546263	 -0.208789207
