24
0  1  0  1  0  1  12  12  0.54789  1.13464 -0.92176 -1.50851 -1.01981 -1.30185  9.99455  9.99175  9.99292  0.64860 -7.98610 21.09897 -2.29065 -10.17362
C	 -2.435012564	 1.205596888	 0.696637913
H	 -2.382393800	 2.140777046	 1.237262459
C	 -2.483444133	 1.207232298	 -0.696637913
H	 -2.467087772	 2.143612198	 -1.237393693
C	 -2.550623593	 0.001724159	 -1.393187980
H	 -2.584068113	 0.002750518	 -2.473977277
C	 -2.571456564	 -1.205291536	 -0.696563401
H	 -2.625359667	 -2.140103623	 -1.237854679
C	 -2.521844019	 -1.207345219	 0.696537374
H	 -2.536693701	 -2.143700777	 1.237630261
C	 -2.452762069	 -0.001895154	 1.393252783
H	 -2.411706031	 -0.003590798	 2.473870871
C	 0.471768622	 -0.395439200	 0.278700876
H	 -0.495240247	 -0.000003900	 -0.000007055
C	 0.714374158	 -1.765364525	 0.192710484
H	 -0.068520900	 -2.426872151	 -0.152898827
C	 1.959842378	 -2.279319211	 0.549736490
H	 2.146787773	 -3.342587368	 0.482460152
C	 2.965702158	 -1.422422152	 0.993639757
H	 3.932479521	 -1.820439322	 1.270691703
C	 2.725082075	 -0.052339201	 1.080479394
H	 3.505490245	 0.612641689	 1.424950684
C	 1.478687324	 0.459763759	 0.723349779
H	 1.291940001	 1.523175336	 0.790745151
