24
0  1  0  1  0  1  12  12  9.96084 11.02306  7.42118  6.35896  7.29928  6.75159 25.69355 25.69166 25.68203 10.41227 -19.55840 51.15654 -4.72742 -16.45846
C	 -2.435012564	 1.205596888	 0.696637913
H	 -2.382393800	 2.140777046	 1.237262459
C	 -2.483444133	 1.207232298	 -0.696637913
H	 -2.467087772	 2.143612198	 -1.237393693
C	 -2.550623593	 0.001724159	 -1.393187980
H	 -2.584068113	 0.002750518	 -2.473977277
C	 -2.571456564	 -1.205291536	 -0.696563401
H	 -2.625359667	 -2.140103623	 -1.237854679
C	 -2.521844019	 -1.207345219	 0.696537374
H	 -2.536693701	 -2.143700777	 1.237630261
C	 -2.452762069	 -0.001895154	 1.393252783
H	 -2.411706031	 -0.003590798	 2.473870871
C	 0.088178565	 -0.395441150	 -0.698110863
H	 -0.636694018	 -0.000005850	 -0.000010582
C	 0.135011469	 -1.765366475	 -0.951208616
H	 -0.555742503	 -2.426874101	 -0.446006263
C	 1.066939170	 -2.279321161	 -1.851302731
H	 1.102148850	 -3.342589318	 -2.046840361
C	 1.954300566	 -1.422424102	 -2.500451220
H	 2.677623271	 -1.820441272	 -3.199179003
C	 1.909195856	 -0.052341151	 -2.248648297
H	 2.597720829	 0.612639739	 -2.752265952
C	 0.976715162	 0.459761809	 -1.347803587
H	 0.941707605	 1.523173386	 -1.152377975
