24
0  1  0  1  0  1  12  12  5.96231  6.59875  4.60719  3.97075  4.51683  4.20333 15.41531 15.41359 15.41882  5.75746 -11.11511 31.17244 -4.08303 -10.21685
C	 -0.067410173	 1.205596888	 -0.696637913
H	 -0.120028937	 2.140777046	 -1.237262459
C	 -0.018978604	 1.207232298	 0.696637913
H	 -0.035334965	 2.143612198	 1.237393693
C	 0.048200856	 0.001724159	 1.393187980
H	 0.081645376	 0.002750518	 2.473977277
C	 0.069033827	 -1.205291536	 0.696563401
H	 0.122936930	 -2.140103623	 1.237854679
C	 0.019421282	 -1.207345219	 -0.696537374
H	 0.034270964	 -2.143700777	 -1.237630261
C	 -0.049660668	 -0.001895154	 -1.393252783
H	 -0.090716706	 -0.003590798	 -2.473870871
C	 -2.958582082	 1.021789199	 0.242146868
H	 -1.914923706	 0.875842108	 0.000010582
C	 -3.788263965	 -0.081047253	 0.437919500
H	 -3.382193263	 -1.079335494	 0.345778414
C	 -5.133939267	 0.102414992	 0.751460019
H	 -5.776650884	 -0.754271596	 0.903195734
C	 -5.652101327	 1.391035492	 0.869958403
H	 -6.696159946	 1.534232377	 1.113413061
C	 -4.824197455	 2.495080490	 0.674443030
H	 -5.226173581	 3.495015307	 0.766326227
C	 -3.478708252	 2.309587501	 0.360528973
H	 -2.836125024	 3.166513821	 0.208789207
