24
0  1  0  1  0  1  12  12 -2.09618 -1.93769 -2.56308 -2.72157 -2.60485 -2.67202  1.04413  1.04408  1.04482 -2.18178 -1.61048  3.31278 -0.43749 -3.44659
C	 -0.067410173	 1.205596888	 -0.696637913
H	 -0.120028937	 2.140777046	 -1.237262459
C	 -0.018978604	 1.207232298	 0.696637913
H	 -0.035334965	 2.143612198	 1.237393693
C	 0.048200856	 0.001724159	 1.393187980
H	 0.081645376	 0.002750518	 2.473977277
C	 0.069033827	 -1.205291536	 0.696563401
H	 0.122936930	 -2.140103623	 1.237854679
C	 0.019421282	 -1.207345219	 -0.696537374
H	 0.034270964	 -2.143700777	 -1.237630261
C	 -0.049660668	 -0.001895154	 -1.393252783
H	 -0.090716706	 -0.003590798	 -2.473870871
C	 -3.457688216	 -0.395435300	 1.949311649
H	 -2.732815633	 0.000000000	 1.251211368
C	 -3.504521120	 -1.765360625	 2.202409403
H	 -2.813767148	 -2.426868251	 1.697207049
C	 -4.436448820	 -2.279315311	 3.102503517
H	 -4.471658501	 -3.342583468	 3.298041147
C	 -5.323810217	 -1.422418252	 3.751652006
H	 -6.047132922	 -1.820435422	 4.450379789
C	 -5.278705508	 -0.052335301	 3.499849084
H	 -5.967230480	 0.612645589	 4.003466739
C	 -4.346224813	 0.459767659	 2.599004373
H	 -4.311217256	 1.523179236	 2.403578761
