24
0  1  0  1  0  1  12  12 -1.91292 -1.51286 -3.12603 -3.52610 -3.20595 -3.39314  5.29067  5.28542  5.28043 -1.90410 -4.61914 11.66343 -1.26704 -7.68136
C	 -2.435012564	 1.205596888	 0.696637913
H	 -2.382393800	 2.140777046	 1.237262459
C	 -2.483444133	 1.207232298	 -0.696637913
H	 -2.467087772	 2.143612198	 -1.237393693
C	 -2.550623593	 0.001724159	 -1.393187980
H	 -2.584068113	 0.002750518	 -2.473977277
C	 -2.571456564	 -1.205291536	 -0.696563401
H	 -2.625359667	 -2.140103623	 -1.237854679
C	 -2.521844019	 -1.207345219	 0.696537374
H	 -2.536693701	 -2.143700777	 1.237630261
C	 -2.452762069	 -0.001895154	 1.393252783
H	 -2.411706031	 -0.003590798	 2.473870871
C	 0.621086274	 -0.395437250	 -0.698103808
H	 -0.103786309	 -0.000001950	 -0.000003527
C	 0.667919178	 -1.765362575	 -0.951201561
H	 -0.022834794	 -2.426870201	 -0.445999208
C	 1.599846879	 -2.279317261	 -1.851295676
H	 1.635056559	 -3.342585418	 -2.046833306
C	 2.487208275	 -1.422420202	 -2.500444165
H	 3.210530980	 -1.820437372	 -3.199171948
C	 2.442103565	 -0.052337251	 -2.248641242
H	 3.130628538	 0.612643639	 -2.752258897
C	 1.509622871	 0.459765709	 -1.347796532
H	 1.474615314	 1.523177286	 -1.152370920
