24
0  1  0  1  0  1  12  12  0.58306  1.00508 -0.35808 -0.78010 -0.43508 -0.63372  7.49529  7.49215  7.49410  0.61456 -6.12957 16.32342 -2.15364 -7.42564
C	 -0.067410173	 1.205596888	 -0.696637913
H	 -0.120028937	 2.140777046	 -1.237262459
C	 -0.018978604	 1.207232298	 0.696637913
H	 -0.035334965	 2.143612198	 1.237393693
C	 0.048200856	 0.001724159	 1.393187980
H	 0.081645376	 0.002750518	 2.473977277
C	 0.069033827	 -1.205291536	 0.696563401
H	 0.122936930	 -2.140103623	 1.237854679
C	 0.019421282	 -1.207345219	 -0.696537374
H	 0.034270964	 -2.143700777	 -1.237630261
C	 -0.049660668	 -0.001895154	 -1.393252783
H	 -0.090716706	 -0.003590798	 -2.473870871
C	 -3.154351210	 -0.395439200	 -1.279669972
H	 -2.187342341	 -0.000003900	 -1.000962040
C	 -3.396956746	 -1.765364525	 -1.193679579
H	 -2.614061688	 -2.426872151	 -0.848070269
C	 -4.642424965	 -2.279319211	 -1.550705585
H	 -4.829370361	 -3.342587368	 -1.483429248
C	 -5.648284746	 -1.422422152	 -1.994608853
H	 -6.615062109	 -1.820439322	 -2.271660799
C	 -5.407664664	 -0.052339201	 -2.081448489
H	 -6.188072833	 0.612641689	 -2.425919779
C	 -4.161269912	 0.459763759	 -1.724318875
H	 -3.974522589	 1.523175336	 -1.791714247
