24
0  1  0  1  0  1  12  12 -1.71196 -1.53887 -2.18495 -2.35804 -2.23063 -2.30413  1.54158  1.53895  1.53934 -1.79320 -1.86301  4.30361 -0.65926 -3.57455
C	 -0.067410173	 1.205596888	 -0.696637913
H	 -0.120028937	 2.140777046	 -1.237262459
C	 -0.018978604	 1.207232298	 0.696637913
H	 -0.035334965	 2.143612198	 1.237393693
C	 0.048200856	 0.001724159	 1.393187980
H	 0.081645376	 0.002750518	 2.473977277
C	 0.069033827	 -1.205291536	 0.696563401
H	 0.122936930	 -2.140103623	 1.237854679
C	 0.019421282	 -1.207345219	 -0.696537374
H	 0.034270964	 -2.143700777	 -1.237630261
C	 -0.049660668	 -0.001895154	 -1.393252783
H	 -0.090716706	 -0.003590798	 -2.473870871
C	 -3.642286358	 1.334596916	 0.242138050
H	 -2.598627982	 1.188649825	 0.000001764
C	 -4.471968241	 0.231760464	 0.437910682
H	 -4.065897539	 -0.766527777	 0.345769596
C	 -5.817643543	 0.415222709	 0.751451201
H	 -6.460355160	 -0.441463879	 0.903186916
C	 -6.335805603	 1.703843209	 0.869949585
H	 -7.379864222	 1.847040094	 1.113404243
C	 -5.507901731	 2.807888207	 0.674434212
H	 -5.909877857	 3.807823024	 0.766317409
C	 -4.162412528	 2.622395218	 0.360520155
H	 -3.519829300	 3.479321538	 0.208780389
