24
0  1  0  1  0  1  12  12 -2.52968 -2.38243 -3.15552 -3.30277 -3.19672 -3.25820  0.81016  0.81070  0.81029 -2.69432 -1.13737  2.46907 -0.36218 -3.66385
C	 -2.435012564	 1.205596888	 0.696637913
H	 -2.382393800	 2.140777046	 1.237262459
C	 -2.483444133	 1.207232298	 -0.696637913
H	 -2.467087772	 2.143612198	 -1.237393693
C	 -2.550623593	 0.001724159	 -1.393187980
H	 -2.584068113	 0.002750518	 -2.473977277
C	 -2.571456564	 -1.205291536	 -0.696563401
H	 -2.625359667	 -2.140103623	 -1.237854679
C	 -2.521844019	 -1.207345219	 0.696537374
H	 -2.536693701	 -2.143700777	 1.237630261
C	 -2.452762069	 -0.001895154	 1.393252783
H	 -2.411706031	 -0.003590798	 2.473870871
C	 1.153993984	 -0.395433350	 -0.698096754
H	 0.429121401	 0.000001950	 0.000003527
C	 1.200826888	 -1.765358675	 -0.951194507
H	 0.510072916	 -2.426866301	 -0.445992154
C	 2.132754589	 -2.279313361	 -1.851288622
H	 2.167964269	 -3.342581518	 -2.046826252
C	 3.020115985	 -1.422416302	 -2.500437111
H	 3.743438690	 -1.820433472	 -3.199164894
C	 2.975011275	 -0.052333351	 -2.248634188
H	 3.663536248	 0.612647539	 -2.752251843
C	 2.042530581	 0.459769609	 -1.347789478
H	 2.007523024	 1.523181186	 -1.152363866
