24
0  1  0  1  0  1  12  12 -1.62842 -1.35536 -2.31303 -2.58609 -2.37140 -2.49596  3.25556  3.25354  3.25250 -1.63775 -3.26671  7.81718 -0.92708 -5.26113
C	 -0.067410173	 1.205596888	 -0.696637913
H	 -0.120028937	 2.140777046	 -1.237262459
C	 -0.018978604	 1.207232298	 0.696637913
H	 -0.035334965	 2.143612198	 1.237393693
C	 0.048200856	 0.001724159	 1.393187980
H	 0.081645376	 0.002750518	 2.473977277
C	 0.069033827	 -1.205291536	 0.696563401
H	 0.122936930	 -2.140103623	 1.237854679
C	 0.019421282	 -1.207345219	 -0.696537374
H	 0.034270964	 -2.143700777	 -1.237630261
C	 -0.049660668	 -0.001895154	 -1.393252783
H	 -0.090716706	 -0.003590798	 -2.473870871
C	 -3.184461826	 -0.395437250	 1.824194040
H	 -2.459589243	 -0.000001950	 1.126093759
C	 -3.231294730	 -1.765362575	 2.077291794
H	 -2.540540758	 -2.426870201	 1.572089440
C	 -4.163222430	 -2.279317261	 2.977385908
H	 -4.198432111	 -3.342585418	 3.172923538
C	 -5.050583827	 -1.422420202	 3.626534397
H	 -5.773906532	 -1.820437372	 4.325262180
C	 -5.005479118	 -0.052337251	 3.374731475
H	 -5.694004090	 0.612643639	 3.878349130
C	 -4.072998423	 0.459765709	 2.473886764
H	 -4.037990866	 1.523177286	 2.278461152
