24
0  1  0  1  0  1  12  12  7.52208  8.45329  5.44065  4.50944  5.32330  4.85418 21.28359 21.28441 21.28771  7.61210 -15.23571 41.82125 -4.24930 -14.72413
C	 0.729188666	 1.113101217	 0.326728253
H	 1.303215897	 2.014222336	 0.159160270
C	 1.375087369	 -0.119366352	 0.412776946
H	 2.450514736	 -0.174623998	 0.313307203
C	 0.635039807	 -1.280553386	 0.629385409
H	 1.136334479	 -2.236017467	 0.700217157
C	 -0.750985629	 -1.209654296	 0.757890338
H	 -1.324525898	 -2.111412827	 0.924198912
C	 -1.397034430	 0.022670814	 0.673089633
H	 -2.472425369	 0.078488260	 0.773997991
C	 -0.656897314	 1.184296216	 0.458338585
H	 -1.157828445	 2.140587131	 0.395096082
C	 0.067347004	 0.019893607	 3.308976465
H	 0.189473411	 0.245377063	 2.258550031
C	 -1.023734564	 -0.735005004	 3.736312734
H	 -1.744239093	 -1.091519261	 3.012618313
C	 -1.184434545	 -1.029130327	 5.089262801
H	 -2.031542132	 -1.615098891	 5.419510342
C	 -0.252551984	 -0.568076947	 6.017756879
H	 -0.376445480	 -0.796043108	 7.067764378
C	 0.839033115	 0.187025107	 5.592516595
H	 1.562152200	 0.544858287	 6.312899249
C	 0.997837009	 0.480510126	 4.239025278
H	 1.845094927	 1.066584921	 3.908977953
