24
0  1  0  1  0  1  12  12 -2.81786 -2.61771 -3.41988 -3.62003 -3.48059 -3.56139  0.99668  0.99232  0.99187 -2.96502 -1.65836  3.44859 -0.51493 -4.24033
C	 0.729188666	 1.113101217	 0.326728253
H	 1.303215897	 2.014222336	 0.159160270
C	 1.375087369	 -0.119366352	 0.412776946
H	 2.450514736	 -0.174623998	 0.313307203
C	 0.635039807	 -1.280553386	 0.629385409
H	 1.136334479	 -2.236017467	 0.700217157
C	 -0.750985629	 -1.209654296	 0.757890338
H	 -1.324525898	 -2.111412827	 0.924198912
C	 -1.397034430	 0.022670814	 0.673089633
H	 -2.472425369	 0.078488260	 0.773997991
C	 -0.656897314	 1.184296216	 0.458338585
H	 -1.157828445	 2.140587131	 0.395096082
C	 0.167513548	 0.166676403	 4.166410364
H	 0.289639955	 0.392159859	 3.115983930
C	 -0.923568020	 -0.588222208	 4.593746633
H	 -1.644072549	 -0.944736465	 3.870052212
C	 -1.084268001	 -0.882347531	 5.946696700
H	 -1.931375588	 -1.468316095	 6.276944241
C	 -0.152385440	 -0.421294151	 6.875190778
H	 -0.276278936	 -0.649260312	 7.925198277
C	 0.939199659	 0.333807903	 6.449950494
H	 1.662318744	 0.691641083	 7.170333148
C	 1.098003553	 0.627292922	 5.096459177
H	 1.945261471	 1.213367717	 4.766411852
