24
0  1  0  1  0  1  12  12 -1.55710 -1.30659 -2.17003 -2.42053 -2.22999 -2.34012  2.92773  2.92492  2.92499 -1.59433 -2.95430  7.24289 -1.01643 -4.86649
C	 -0.067410173	 1.205596888	 -0.696637913
H	 -0.120028937	 2.140777046	 -1.237262459
C	 -0.018978604	 1.207232298	 0.696637913
H	 -0.035334965	 2.143612198	 1.237393693
C	 0.048200856	 0.001724159	 1.393187980
H	 0.081645376	 0.002750518	 2.473977277
C	 0.069033827	 -1.205291536	 0.696563401
H	 0.122936930	 -2.140103623	 1.237854679
C	 0.019421282	 -1.207345219	 -0.696537374
H	 0.034270964	 -2.143700777	 -1.237630261
C	 -0.049660668	 -0.001895154	 -1.393252783
H	 -0.090716706	 -0.003590798	 -2.473870871
C	 -3.427700036	 -0.395437250	 -1.404794636
H	 -2.460691167	 -0.000001950	 -1.126086704
C	 -3.670305572	 -1.765362575	 -1.318804243
H	 -2.887410514	 -2.426870201	 -0.973194933
C	 -4.915773791	 -2.279317261	 -1.675830249
H	 -5.102719187	 -3.342585418	 -1.608553912
C	 -5.921633572	 -1.422420202	 -2.119733517
H	 -6.888410935	 -1.820437372	 -2.396785463
C	 -5.681013490	 -0.052337251	 -2.206573153
H	 -6.461421659	 0.612643639	 -2.551044443
C	 -4.434618738	 0.459765709	 -1.849443539
H	 -4.247871415	 1.523177286	 -1.916838911
