24
0  1  0  1  0  1  12  12 -1.87869 -1.76992 -2.23772 -2.34648 -2.27399 -2.31559  0.55118  0.55112  0.55186 -1.98025 -0.95396  1.93577 -0.29144 -2.67063
C	 -2.435012564	 1.205596888	 0.696637913
H	 -2.382393800	 2.140777046	 1.237262459
C	 -2.483444133	 1.207232298	 -0.696637913
H	 -2.467087772	 2.143612198	 -1.237393693
C	 -2.550623593	 0.001724159	 -1.393187980
H	 -2.584068113	 0.002750518	 -2.473977277
C	 -2.571456564	 -1.205291536	 -0.696563401
H	 -2.625359667	 -2.140103623	 -1.237854679
C	 -2.521844019	 -1.207345219	 0.696537374
H	 -2.536693701	 -2.143700777	 1.237630261
C	 -2.452762069	 -0.001895154	 1.393252783
H	 -2.411706031	 -0.003590798	 2.473870871
C	 1.704210273	 -0.830860146	 -0.242134522
H	 1.055987197	 0.000000975	 0.000001764
C	 1.163966831	 -2.100803960	 -0.437907154
H	 0.096388503	 -2.248280537	 -0.345766068
C	 1.995687448	 -3.174461835	 -0.751447673
H	 1.575130907	 -4.159409716	 -0.903183388
C	 3.370746566	 -2.978893091	 -0.869946057
H	 4.016788015	 -3.811475936	 -1.113400715
C	 3.912925645	 -1.709884807	 -0.674430684
H	 4.979882661	 -1.558038936	 -0.766313881
C	 3.079539402	 -0.637403472	 -0.360516627
H	 3.500367750	 0.347553088	 -0.208776861
