24
0  1  0  1  0  1  12  12 -2.62728 -2.47102 -3.15415 -3.31041 -3.20367 -3.26529  0.51224  0.50968  0.50989 -2.78257 -1.24587  2.35655 -0.37829 -3.51496
C	 -2.435012564	 1.205596888	 0.696637913
H	 -2.382393800	 2.140777046	 1.237262459
C	 -2.483444133	 1.207232298	 -0.696637913
H	 -2.467087772	 2.143612198	 -1.237393693
C	 -2.550623593	 0.001724159	 -1.393187980
H	 -2.584068113	 0.002750518	 -2.473977277
C	 -2.571456564	 -1.205291536	 -0.696563401
H	 -2.625359667	 -2.140103623	 -1.237854679
C	 -2.521844019	 -1.207345219	 0.696537374
H	 -2.536693701	 -2.143700777	 1.237630261
C	 -2.452762069	 -0.001895154	 1.393252783
H	 -2.411706031	 -0.003590798	 2.473870871
C	 1.224255155	 -0.395433350	 0.278711458
H	 0.257246286	 0.000001950	 0.000003527
C	 1.466860691	 -1.765358675	 0.192721066
H	 0.683965633	 -2.426866301	 -0.152888245
C	 2.712328911	 -2.279313361	 0.549747072
H	 2.899274306	 -3.342581518	 0.482470734
C	 3.718188691	 -1.422416302	 0.993650339
H	 4.684966054	 -1.820433472	 1.270702285
C	 3.477568608	 -0.052333351	 1.080489976
H	 4.257976778	 0.612647539	 1.424961266
C	 2.231173857	 0.459769609	 0.723360361
H	 2.044426534	 1.523181186	 0.790755733
