24
0  1  0  1  0  1  12  12 -1.75282 -1.66754 -2.04428 -2.12956 -2.07343 -2.10548  0.15887  0.15929  0.16024 -1.85097 -0.79525  1.31918 -0.23245 -2.14244
C	 -0.067410173	 1.205596888	 -0.696637913
H	 -0.120028937	 2.140777046	 -1.237262459
C	 -0.018978604	 1.207232298	 0.696637913
H	 -0.035334965	 2.143612198	 1.237393693
C	 0.048200856	 0.001724159	 1.393187980
H	 0.081645376	 0.002750518	 2.473977277
C	 0.069033827	 -1.205291536	 0.696563401
H	 0.122936930	 -2.140103623	 1.237854679
C	 0.019421282	 -1.207345219	 -0.696537374
H	 0.034270964	 -2.143700777	 -1.237630261
C	 -0.049660668	 -0.001895154	 -1.393252783
H	 -0.090716706	 -0.003590798	 -2.473870871
C	 -3.974397688	 -0.395433350	 -1.655043964
H	 -3.007388819	 0.000001950	 -1.376336032
C	 -4.217003224	 -1.765358675	 -1.569053571
H	 -3.434108166	 -2.426866301	 -1.223444261
C	 -5.462471443	 -2.279313361	 -1.926079577
H	 -5.649416839	 -3.342581518	 -1.858803240
C	 -6.468331224	 -1.422416302	 -2.369982845
H	 -7.435108587	 -1.820433472	 -2.647034791
C	 -6.227711142	 -0.052333351	 -2.456822481
H	 -7.008119311	 0.612647539	 -2.801293771
C	 -4.981316390	 0.459769609	 -2.099692867
H	 -4.794569067	 1.523181186	 -2.167088239
