24
0  1  0  1  0  1  12  12 -2.59263 -2.28783 -3.45016 -3.75496 -3.52606 -3.65863  2.83624  2.82988  2.82933 -2.68008 -3.02658  7.21448 -0.91543 -5.95255
C	 -2.435012564	 1.205596888	 0.696637913
H	 -2.382393800	 2.140777046	 1.237262459
C	 -2.483444133	 1.207232298	 -0.696637913
H	 -2.467087772	 2.143612198	 -1.237393693
C	 -2.550623593	 0.001724159	 -1.393187980
H	 -2.584068113	 0.002750518	 -2.473977277
C	 -2.571456564	 -1.205291536	 -0.696563401
H	 -2.625359667	 -2.140103623	 -1.237854679
C	 -2.521844019	 -1.207345219	 0.696537374
H	 -2.536693701	 -2.143700777	 1.237630261
C	 -2.452762069	 -0.001895154	 1.393252783
H	 -2.411706031	 -0.003590798	 2.473870871
C	 0.848011889	 -0.395436275	 0.278706167
H	 -0.118996980	 -0.000000975	 -0.000001764
C	 1.090617425	 -1.765361600	 0.192715775
H	 0.307722367	 -2.426869226	 -0.152893536
C	 2.336085645	 -2.279316286	 0.549741781
H	 2.523031040	 -3.342584443	 0.482465443
C	 3.341945425	 -1.422419227	 0.993645048
H	 4.308722788	 -1.820436397	 1.270696994
C	 3.101325342	 -0.052336276	 1.080484685
H	 3.881733512	 0.612644614	 1.424955975
C	 1.854930591	 0.459766684	 0.723355070
H	 1.668183268	 1.523178261	 0.790750442
