24
0  1  0  1  0  1  12  12  7.44108  8.36313  5.31721  4.39516  5.20088  4.73608 21.11212 21.11351 21.11590  7.55118 -15.45026 41.78531 -4.18630 -14.59757
C	 -2.435012564	 1.205596888	 0.696637913
H	 -2.382393800	 2.140777046	 1.237262459
C	 -2.483444133	 1.207232298	 -0.696637913
H	 -2.467087772	 2.143612198	 -1.237393693
C	 -2.550623593	 0.001724159	 -1.393187980
H	 -2.584068113	 0.002750518	 -2.473977277
C	 -2.571456564	 -1.205291536	 -0.696563401
H	 -2.625359667	 -2.140103623	 -1.237854679
C	 -2.521844019	 -1.207345219	 0.696537374
H	 -2.536693701	 -2.143700777	 1.237630261
C	 -2.452762069	 -0.001895154	 1.393252783
H	 -2.411706031	 -0.003590798	 2.473870871
C	 0.220939778	 -0.395441150	 0.278697349
H	 -0.746069091	 -0.000005850	 -0.000010582
C	 0.463545314	 -1.765366475	 0.192706957
H	 -0.319349744	 -2.426874101	 -0.152902354
C	 1.709013534	 -2.279321161	 0.549732963
H	 1.895958929	 -3.342589318	 0.482456625
C	 2.714873314	 -1.422424102	 0.993636230
H	 3.681650677	 -1.820441272	 1.270688176
C	 2.474253231	 -0.052341151	 1.080475867
H	 3.254661401	 0.612639739	 1.424947157
C	 1.227858480	 0.459761809	 0.723346252
H	 1.041111157	 1.523173386	 0.790741624
