24
0  1  0  1  0  1  12  12 -2.15310 -1.76845 -3.15382 -3.53847 -3.23998 -3.41263  4.44812  4.44131  4.44111 -2.19205 -4.13764 10.40915 -1.26644 -7.19712
C	 0.729188666	 1.113101217	 0.326728253
H	 1.303215897	 2.014222336	 0.159160270
C	 1.375087369	 -0.119366352	 0.412776946
H	 2.450514736	 -0.174623998	 0.313307203
C	 0.635039807	 -1.280553386	 0.629385409
H	 1.136334479	 -2.236017467	 0.700217157
C	 -0.750985629	 -1.209654296	 0.757890338
H	 -1.324525898	 -2.111412827	 0.924198912
C	 -1.397034430	 0.022670814	 0.673089633
H	 -2.472425369	 0.078488260	 0.773997991
C	 -0.656897314	 1.184296216	 0.458338585
H	 -1.157828445	 2.140587131	 0.395096082
C	 0.124585029	 0.103769490	 3.798938693
H	 0.246711436	 0.329252946	 2.748512259
C	 -0.966496539	 -0.651129121	 4.226274962
H	 -1.687001068	 -1.007643378	 3.502580541
C	 -1.127196520	 -0.945254444	 5.579225029
H	 -1.974304107	 -1.531223008	 5.909472570
C	 -0.195313959	 -0.484201064	 6.507719107
H	 -0.319207455	 -0.712167225	 7.557726606
C	 0.896271140	 0.270900990	 6.082478823
H	 1.619390225	 0.628734170	 6.802861477
C	 1.055075034	 0.564386009	 4.728987506
H	 1.902332952	 1.150460804	 4.398940181
