24
0  1  0  1  0  1  12  12  8.30981  9.12559  6.69100  5.87523  6.58844  6.17397 20.26340 20.25852 20.25344  8.51686 -15.18699 40.57588 -4.23732 -12.63472
C	 -0.067410173	 1.205596888	 -0.696637913
H	 -0.120028937	 2.140777046	 -1.237262459
C	 -0.018978604	 1.207232298	 0.696637913
H	 -0.035334965	 2.143612198	 1.237393693
C	 0.048200856	 0.001724159	 1.393187980
H	 0.081645376	 0.002750518	 2.473977277
C	 0.069033827	 -1.205291536	 0.696563401
H	 0.122936930	 -2.140103623	 1.237854679
C	 0.019421282	 -1.207345219	 -0.696537374
H	 0.034270964	 -2.143700777	 -1.237630261
C	 -0.049660668	 -0.001895154	 -1.393252783
H	 -0.090716706	 -0.003590798	 -2.473870871
C	 -2.638009047	 -0.395441150	 1.573958821
H	 -1.913136464	 -0.000005850	 0.875858540
C	 -2.684841951	 -1.765366475	 1.827056575
H	 -1.994087979	 -2.426874101	 1.321854221
C	 -3.616769651	 -2.279321161	 2.727150689
H	 -3.651979332	 -3.342589318	 2.922688319
C	 -4.504131048	 -1.422424102	 3.376299178
H	 -5.227453753	 -1.820441272	 4.075026961
C	 -4.459026339	 -0.052341151	 3.124496256
H	 -5.147551311	 0.612639739	 3.628113911
C	 -3.526545644	 0.459761809	 2.223651545
H	 -3.491538087	 1.523173386	 2.028225933
