24
0  1  0  1  0  1  12  12 -1.88714 -1.69439 -2.38787 -2.58062 -2.43966 -2.52118  1.72807  1.72584  1.72578 -1.95414 -2.07737  4.77098 -0.69790 -3.94985
C	 -0.067410173	 1.205596888	 -0.696637913
H	 -0.120028937	 2.140777046	 -1.237262459
C	 -0.018978604	 1.207232298	 0.696637913
H	 -0.035334965	 2.143612198	 1.237393693
C	 0.048200856	 0.001724159	 1.393187980
H	 0.081645376	 0.002750518	 2.473977277
C	 0.069033827	 -1.205291536	 0.696563401
H	 0.122936930	 -2.140103623	 1.237854679
C	 0.019421282	 -1.207345219	 -0.696537374
H	 0.034270964	 -2.143700777	 -1.237630261
C	 -0.049660668	 -0.001895154	 -1.393252783
H	 -0.090716706	 -0.003590798	 -2.473870871
C	 -3.564374449	 -0.395436275	 -1.467356968
H	 -2.597365580	 -0.000000975	 -1.188649036
C	 -3.806979985	 -1.765361600	 -1.381366575
H	 -3.024084927	 -2.426869226	 -1.035757265
C	 -5.052448204	 -2.279316286	 -1.738392581
H	 -5.239393600	 -3.342584443	 -1.671116244
C	 -6.058307985	 -1.422419227	 -2.182295849
H	 -7.025085348	 -1.820436397	 -2.459347795
C	 -5.817687903	 -0.052336276	 -2.269135485
H	 -6.598096072	 0.612644614	 -2.613606775
C	 -4.571293151	 0.459766684	 -1.912005871
H	 -4.384545828	 1.523178261	 -1.979401243
