24
0  1  0  1  0  1  12  12  6.64448  7.50619  4.62250  3.76078  4.50839  4.07978 19.42349 19.42582 19.43435  6.56335 -14.12409 38.56170 -4.07933 -13.79493
C	 -2.435012564	 1.205596888	 0.696637913
H	 -2.382393800	 2.140777046	 1.237262459
C	 -2.483444133	 1.207232298	 -0.696637913
H	 -2.467087772	 2.143612198	 -1.237393693
C	 -2.550623593	 0.001724159	 -1.393187980
H	 -2.584068113	 0.002750518	 -2.473977277
C	 -2.571456564	 -1.205291536	 -0.696563401
H	 -2.625359667	 -2.140103623	 -1.237854679
C	 -2.521844019	 -1.207345219	 0.696537374
H	 -2.536693701	 -2.143700777	 1.237630261
C	 -2.452762069	 -0.001895154	 1.393252783
H	 -2.411706031	 -0.003590798	 2.473870871
C	 0.258341599	 0.145941241	 -0.242146868
H	 -0.785316777	 -0.000005850	 -0.000010582
C	 1.088023482	 -0.956895212	 -0.437919500
H	 0.681952780	 -1.955183453	 -0.345778414
C	 2.433698785	 -0.773432966	 -0.751460019
H	 3.076410401	 -1.630119555	 -0.903195734
C	 2.951860844	 0.515187534	 -0.869958403
H	 3.995919463	 0.658384418	 -1.113413061
C	 2.123956972	 1.619232532	 -0.674443030
H	 2.525933098	 2.619167348	 -0.766326227
C	 0.778467769	 1.433739542	 -0.360528973
H	 0.135884540	 2.290665862	 -0.208789207
