24
0  1  0  1  0  1  12  12  6.82323  7.53983  5.35599  4.63939  5.25835  4.90126 17.46572 17.46276 17.46452  6.76081 -12.84347 35.49138 -4.47674 -11.41035
C	 -0.067410173	 1.205596888	 -0.696637913
H	 -0.120028937	 2.140777046	 -1.237262459
C	 -0.018978604	 1.207232298	 0.696637913
H	 -0.035334965	 2.143612198	 1.237393693
C	 0.048200856	 0.001724159	 1.393187980
H	 0.081645376	 0.002750518	 2.473977277
C	 0.069033827	 -1.205291536	 0.696563401
H	 0.122936930	 -2.140103623	 1.237854679
C	 0.019421282	 -1.207345219	 -0.696537374
H	 0.034270964	 -2.143700777	 -1.237630261
C	 -0.049660668	 -0.001895154	 -1.393252783
H	 -0.090716706	 -0.003590798	 -2.473870871
C	 -2.881002385	 -0.395441150	 -1.154545308
H	 -1.913993516	 -0.000005850	 -0.875837376
C	 -3.123607921	 -1.765366475	 -1.068554915
H	 -2.340712863	 -2.426874101	 -0.722945605
C	 -4.369076140	 -2.279321161	 -1.425580921
H	 -4.556021536	 -3.342589318	 -1.358304584
C	 -5.374935921	 -1.422424102	 -1.869484189
H	 -6.341713284	 -1.820441272	 -2.146536135
C	 -5.134315839	 -0.052341151	 -1.956323825
H	 -5.914724008	 0.612639739	 -2.300795115
C	 -3.887921087	 0.459761809	 -1.599194211
H	 -3.701173764	 1.523173386	 -1.666589583
