24
0  1  0  1  0  1  12  12 -1.87230 -1.78213 -2.20374 -2.29392 -2.23126 -2.26659  0.16442  0.16614  0.16824 -1.97735 -0.86033  1.38053 -0.21307 -2.28447
C	 -0.067410173	 1.205596888	 -0.696637913
H	 -0.120028937	 2.140777046	 -1.237262459
C	 -0.018978604	 1.207232298	 0.696637913
H	 -0.035334965	 2.143612198	 1.237393693
C	 0.048200856	 0.001724159	 1.393187980
H	 0.081645376	 0.002750518	 2.473977277
C	 0.069033827	 -1.205291536	 0.696563401
H	 0.122936930	 -2.140103623	 1.237854679
C	 0.019421282	 -1.207345219	 -0.696537374
H	 0.034270964	 -2.143700777	 -1.237630261
C	 -0.049660668	 -0.001895154	 -1.393252783
H	 -0.090716706	 -0.003590798	 -2.473870871
C	 -3.730914606	 -0.395433350	 2.074429258
H	 -3.006042023	 0.000001950	 1.376328977
C	 -3.777747510	 -1.765358675	 2.327527012
H	 -3.086993538	 -2.426866301	 1.822324658
C	 -4.709675210	 -2.279313361	 3.227621126
H	 -4.744884891	 -3.342581518	 3.423158756
C	 -5.597036607	 -1.422416302	 3.876769615
H	 -6.320359312	 -1.820433472	 4.575497398
C	 -5.551931898	 -0.052333351	 3.624966693
H	 -6.240456870	 0.612647539	 4.128584348
C	 -4.619451203	 0.459769609	 2.724121982
H	 -4.584443646	 1.523181186	 2.528696370
