24
0  1  0  1  0  1  12  12  0.37465  0.92965 -1.03332 -1.58832 -1.12965 -1.39212  9.27772  9.27631  9.28271  0.38751 -7.48292 19.85840 -2.28889 -9.69908
C	 -2.435012564	 1.205596888	 0.696637913
H	 -2.382393800	 2.140777046	 1.237262459
C	 -2.483444133	 1.207232298	 -0.696637913
H	 -2.467087772	 2.143612198	 -1.237393693
C	 -2.550623593	 0.001724159	 -1.393187980
H	 -2.584068113	 0.002750518	 -2.473977277
C	 -2.571456564	 -1.205291536	 -0.696563401
H	 -2.625359667	 -2.140103623	 -1.237854679
C	 -2.521844019	 -1.207345219	 0.696537374
H	 -2.536693701	 -2.143700777	 1.237630261
C	 -2.452762069	 -0.001895154	 1.393252783
H	 -2.411706031	 -0.003590798	 2.473870871
C	 0.503563631	 0.145943191	 -0.242143341
H	 -0.540094745	 -0.000003900	 -0.000007055
C	 1.333245514	 -0.956893262	 -0.437915973
H	 0.927174812	 -1.955181503	 -0.345774887
C	 2.678920817	 -0.773431016	 -0.751456492
H	 3.321632433	 -1.630117605	 -0.903192207
C	 3.197082876	 0.515189484	 -0.869954876
H	 4.241141495	 0.658386368	 -1.113409534
C	 2.369179004	 1.619234482	 -0.674439503
H	 2.771155130	 2.619169298	 -0.766322700
C	 1.023689801	 1.433741492	 -0.360525446
H	 0.381106572	 2.290667812	 -0.208785680
