24
0  1  0  1  0  1  12  12 -2.55153 -2.25597 -3.37450 -3.67007 -3.45128 -3.57695  2.63179  2.62536  2.62729 -2.65745 -2.93801  6.96841 -0.94324 -5.74461
C	 -2.435012564	 1.205596888	 0.696637913
H	 -2.382393800	 2.140777046	 1.237262459
C	 -2.483444133	 1.207232298	 -0.696637913
H	 -2.467087772	 2.143612198	 -1.237393693
C	 -2.550623593	 0.001724159	 -1.393187980
H	 -2.584068113	 0.002750518	 -2.473977277
C	 -2.571456564	 -1.205291536	 -0.696563401
H	 -2.625359667	 -2.140103623	 -1.237854679
C	 -2.521844019	 -1.207345219	 0.696537374
H	 -2.536693701	 -2.143700777	 1.237630261
C	 -2.452762069	 -0.001895154	 1.393252783
H	 -2.411706031	 -0.003590798	 2.473870871
C	 0.871396679	 0.145946116	 -0.242138050
H	 -0.172261697	 -0.000000975	 -0.000001764
C	 1.701078562	 -0.956890337	 -0.437910682
H	 1.295007860	 -1.955178578	 -0.345769596
C	 3.046753865	 -0.773428091	 -0.751451201
H	 3.689465481	 -1.630114680	 -0.903186916
C	 3.564915924	 0.515192409	 -0.869949585
H	 4.608974543	 0.658389293	 -1.113404243
C	 2.737012052	 1.619237407	 -0.674434212
H	 3.138988178	 2.619172223	 -0.766317409
C	 1.391522849	 1.433744417	 -0.360520155
H	 0.748939620	 2.290670737	 -0.208780389
