24
0  1  0  1  0  1  12  12 -2.71880 -2.52396 -3.30753 -3.50237 -3.36891 -3.44565  0.90666  0.90105  0.90204 -2.86965 -1.64388  3.37083 -0.52855 -4.06805
C	 -2.435012564	 1.205596888	 0.696637913
H	 -2.382393800	 2.140777046	 1.237262459
C	 -2.483444133	 1.207232298	 -0.696637913
H	 -2.467087772	 2.143612198	 -1.237393693
C	 -2.550623593	 0.001724159	 -1.393187980
H	 -2.584068113	 0.002750518	 -2.473977277
C	 -2.571456564	 -1.205291536	 -0.696563401
H	 -2.625359667	 -2.140103623	 -1.237854679
C	 -2.521844019	 -1.207345219	 0.696537374
H	 -2.536693701	 -2.143700777	 1.237630261
C	 -2.452762069	 -0.001895154	 1.393252783
H	 -2.411706031	 -0.003590798	 2.473870871
C	 1.116618711	 0.145948066	 -0.242134522
H	 0.072960335	 0.000000975	 0.000001764
C	 1.946300594	 -0.956888387	 -0.437907154
H	 1.540229892	 -1.955176628	 -0.345766068
C	 3.291975897	 -0.773426141	 -0.751447673
H	 3.934687513	 -1.630112730	 -0.903183388
C	 3.810137956	 0.515194359	 -0.869946057
H	 4.854196575	 0.658391243	 -1.113400715
C	 2.982234084	 1.619239357	 -0.674430684
H	 3.384210210	 2.619174173	 -0.766313881
C	 1.636744881	 1.433746367	 -0.360516627
H	 0.994161652	 2.290672687	 -0.208776861
