24
0  1  0  1  0  1  12  12  0.53258  1.12595 -0.90837 -1.50175 -1.00803 -1.29265 10.06566 10.06224 10.06418  0.62394 -7.90796 21.14662 -2.33344 -10.28128
C	 0.729188666	 1.113101217	 0.326728253
H	 1.303215897	 2.014222336	 0.159160270
C	 1.375087369	 -0.119366352	 0.412776946
H	 2.450514736	 -0.174623998	 0.313307203
C	 0.635039807	 -1.280553386	 0.629385409
H	 1.136334479	 -2.236017467	 0.700217157
C	 -0.750985629	 -1.209654296	 0.757890338
H	 -1.324525898	 -2.111412827	 0.924198912
C	 -1.397034430	 0.022670814	 0.673089633
H	 -2.472425369	 0.078488260	 0.773997991
C	 -0.656897314	 1.184296216	 0.458338585
H	 -1.157828445	 2.140587131	 0.395096082
C	 0.095966017	 0.061831549	 3.553957579
H	 0.218092424	 0.287315005	 2.503531145
C	 -0.995115551	 -0.693067062	 3.981293848
H	 -1.715620080	 -1.049581319	 3.257599427
C	 -1.155815532	 -0.987192385	 5.334243915
H	 -2.002923119	 -1.573160949	 5.664491456
C	 -0.223932971	 -0.526139005	 6.262737993
H	 -0.347826467	 -0.754105166	 7.312745492
C	 0.867652128	 0.228963049	 5.837497709
H	 1.590771213	 0.586796229	 6.557880363
C	 1.026456022	 0.522448068	 4.484006392
H	 1.873713940	 1.108522863	 4.153959067
