24
0  1  0  1  0  1  12  12 -1.22706 -0.95561 -1.87431 -2.14576 -1.93519 -2.05748  3.78880  3.78512  3.78382 -1.23221 -3.05888  8.18182 -1.00020 -5.35495
C	 -2.435012564	 1.205596888	 0.696637913
H	 -2.382393800	 2.140777046	 1.237262459
C	 -2.483444133	 1.207232298	 -0.696637913
H	 -2.467087772	 2.143612198	 -1.237393693
C	 -2.550623593	 0.001724159	 -1.393187980
H	 -2.584068113	 0.002750518	 -2.473977277
C	 -2.571456564	 -1.205291536	 -0.696563401
H	 -2.625359667	 -2.140103623	 -1.237854679
C	 -2.521844019	 -1.207345219	 0.696537374
H	 -2.536693701	 -2.143700777	 1.237630261
C	 -2.452762069	 -0.001895154	 1.393252783
H	 -2.411706031	 -0.003590798	 2.473870871
C	 1.195944816	 -0.830863071	 -0.242139813
H	 0.547721740	 -0.000001950	 -0.000003527
C	 0.655701374	 -2.100806885	 -0.437912445
H	 -0.411876954	 -2.248283462	 -0.345771359
C	 1.487421991	 -3.174464760	 -0.751452964
H	 1.066865450	 -4.159412641	 -0.903188679
C	 2.862481109	 -2.978896016	 -0.869951348
H	 3.508522558	 -3.811478861	 -1.113406006
C	 3.404660188	 -1.709887732	 -0.674435975
H	 4.471617204	 -1.558041861	 -0.766319172
C	 2.571273945	 -0.637406397	 -0.360521918
H	 2.992102293	 0.347550163	 -0.208782152
