24
0  1  0  1  0  1  12  12  1.27894  1.92882 -0.46621 -1.11609 -0.56566 -0.88718 11.92200 11.91696 11.90913  1.53491 -9.49705 24.68518 -2.44185 -11.21137
C	 -2.435012564	 1.205596888	 0.696637913
H	 -2.382393800	 2.140777046	 1.237262459
C	 -2.483444133	 1.207232298	 -0.696637913
H	 -2.467087772	 2.143612198	 -1.237393693
C	 -2.550623593	 0.001724159	 -1.393187980
H	 -2.584068113	 0.002750518	 -2.473977277
C	 -2.571456564	 -1.205291536	 -0.696563401
H	 -2.625359667	 -2.140103623	 -1.237854679
C	 -2.521844019	 -1.207345219	 0.696537374
H	 -2.536693701	 -2.143700777	 1.237630261
C	 -2.452762069	 -0.001895154	 1.393252783
H	 -2.411706031	 -0.003590798	 2.473870871
C	 0.354632419	 -0.395439200	 -0.698107336
H	 -0.370240164	 -0.000003900	 -0.000007055
C	 0.401465323	 -1.765364525	 -0.951205089
H	 -0.289288649	 -2.426872151	 -0.446002736
C	 1.333393024	 -2.279319211	 -1.851299204
H	 1.368602704	 -3.342587368	 -2.046836834
C	 2.220754420	 -1.422422152	 -2.500447693
H	 2.944077125	 -1.820439322	 -3.199175476
C	 2.175649710	 -0.052339201	 -2.248644770
H	 2.864174683	 0.612641689	 -2.752262425
C	 1.243169016	 0.459763759	 -1.347800060
H	 1.208161459	 1.523175336	 -1.152374448
