24
0  1  0  1  0  1  12  12 -2.72760 -2.48728 -3.42136 -3.66167 -3.49077 -3.58901  1.60546  1.59898  1.60031 -2.86199 -2.18419  4.85812 -0.70443 -4.83149
C	 -2.435012564	 1.205596888	 0.696637913
H	 -2.382393800	 2.140777046	 1.237262459
C	 -2.483444133	 1.207232298	 -0.696637913
H	 -2.467087772	 2.143612198	 -1.237393693
C	 -2.550623593	 0.001724159	 -1.393187980
H	 -2.584068113	 0.002750518	 -2.473977277
C	 -2.571456564	 -1.205291536	 -0.696563401
H	 -2.625359667	 -2.140103623	 -1.237854679
C	 -2.521844019	 -1.207345219	 0.696537374
H	 -2.536693701	 -2.143700777	 1.237630261
C	 -2.452762069	 -0.001895154	 1.393252783
H	 -2.411706031	 -0.003590798	 2.473870871
C	 0.994007695	 0.145947091	 -0.242136286
H	 -0.049650681	 0.000000000	 0.000000000
C	 1.823689578	 -0.956889362	 -0.437908918
H	 1.417618876	 -1.955177603	 -0.345767832
C	 3.169364881	 -0.773427116	 -0.751449437
H	 3.812076497	 -1.630113705	 -0.903185152
C	 3.687526940	 0.515193384	 -0.869947821
H	 4.731585559	 0.658390268	 -1.113402479
C	 2.859623068	 1.619238382	 -0.674432448
H	 3.261599194	 2.619173198	 -0.766315645
C	 1.514133865	 1.433745392	 -0.360518391
H	 0.871550636	 2.290671712	 -0.208778625
