24
0  1  0  1  0  1  12  12 -2.06971 -1.90757 -2.48345 -2.64560 -2.52855 -2.59658  1.24612  1.24494  1.24408 -2.14978 -1.40978  3.25247 -0.41229 -3.58018
C	 -0.067410173	 1.205596888	 -0.696637913
H	 -0.120028937	 2.140777046	 -1.237262459
C	 -0.018978604	 1.207232298	 0.696637913
H	 -0.035334965	 2.143612198	 1.237393693
C	 0.048200856	 0.001724159	 1.393187980
H	 0.081645376	 0.002750518	 2.473977277
C	 0.069033827	 -1.205291536	 0.696563401
H	 0.122936930	 -2.140103623	 1.237854679
C	 0.019421282	 -1.207345219	 -0.696537374
H	 0.034270964	 -2.143700777	 -1.237630261
C	 -0.049660668	 -0.001895154	 -1.393252783
H	 -0.090716706	 -0.003590798	 -2.473870871
C	 -3.474270277	 -2.082072490	 0.242136286
H	 -2.826047201	 -1.251211368	 0.000000000
C	 -2.934026835	 -3.352016303	 0.437908918
H	 -1.866448507	 -3.499492880	 0.345767832
C	 -3.765747451	 -4.425674178	 0.751449437
H	 -3.345190911	 -5.410622059	 0.903185152
C	 -5.140806570	 -4.230105435	 0.869947821
H	 -5.786848019	 -5.062688279	 1.113402479
C	 -5.682985649	 -2.961097151	 0.674432448
H	 -6.749942665	 -2.809251279	 0.766315645
C	 -4.849599406	 -1.888615815	 0.360518391
H	 -5.270427755	 -0.903659255	 0.208778625
