22
0  1  0  1  0  1  11  11 -1.86298 -1.67785 -2.31044 -2.49558 -2.35686 -2.43667  1.50113  1.49836  1.49926 -1.96701 -1.87843  4.30315 -0.67694 -3.71479
N	 -0.036942860	 -1.393595166	 0.000007605
C	 -0.020335119	 -0.691947672	 -1.142006605
H	 -0.039510098	 -1.272961904	 -2.055747872
C	 0.016775950	 0.699410821	 -1.194429280
H	 0.027764380	 1.205005273	 -2.149485644
C	 0.038102661	 1.412646479	 -0.000000000
H	 0.067532763	 2.493443543	 0.000062312
C	 0.020659765	 0.699270671	 1.194415617
H	 0.034700437	 1.204790963	 2.149470107
C	 -0.016911163	 -0.692003372	 1.142005909
H	 -0.033406512	 -1.273065049	 2.055766516
N	 -6.389313540	 0.945405473	 0.047831619
C	 -5.602142699	 -0.139749098	 0.037889038
H	 -6.114131623	 -1.094252624	 0.043999788
C	 -4.210276593	 -0.090921735	 0.020740664
H	 -3.625933452	 -1.000494148	 0.013490697
C	 -3.589082001	 1.154283198	 0.013319930
H	 -2.510304948	 1.233613400	 0.000000267
C	 -4.390186530	 2.291585135	 0.023400854
H	 -3.957496428	 3.282255708	 0.018215562
C	 -5.774030373	 2.135684996	 0.040473318
H	 -6.421954449	 3.003713984	 0.048651332
