22
0  1  0  1  0  1  11  11 -2.67255 -2.52148 -3.08657 -3.23764 -3.13230 -3.19248  0.05311  0.05028  0.05198 -2.79941 -1.32770  2.10152 -0.40130 -3.17193
N	 -2.537257651	 -1.393595166	 -0.000007605
C	 -2.553865392	 -0.691947672	 1.142006605
H	 -2.534690414	 -1.272961904	 2.055747872
C	 -2.590976462	 0.699410821	 1.194429280
H	 -2.601964892	 1.205005273	 2.149485644
C	 -2.612303172	 1.412646479	 -0.000000000
H	 -2.641733275	 2.493443543	 -0.000062312
C	 -2.594860276	 0.699270671	 -1.194415617
H	 -2.608900949	 1.204790963	 -2.149470107
C	 -2.557289348	 -0.692003372	 -1.142005909
H	 -2.540793999	 -1.273065049	 -2.055766516
N	 3.963508900	 -0.309944241	 -0.047830819
C	 3.176338059	 -1.395098812	 -0.037888238
H	 3.688326983	 -2.349602338	 -0.043998988
C	 1.784471953	 -1.346271449	 -0.020739864
H	 1.200128812	 -2.255843861	 -0.013489897
C	 1.163277360	 -0.101066516	 -0.013319130
H	 0.084500307	 -0.021736314	 0.000000533
C	 1.964381889	 1.036235421	 -0.023400054
H	 1.531691788	 2.026905995	 -0.018214762
C	 3.348225733	 0.880335283	 -0.040472518
H	 3.996149809	 1.748364270	 -0.048650532
