22
0  1  0  1  0  1  11  11 -2.46051 -2.32571 -2.80875 -2.94355 -2.84159 -2.89989  0.13535  0.13539  0.13693 -2.54345 -1.52177  2.28280 -0.37071 -2.93377
N	 -0.036942860	 -1.393595166	 0.000007605
C	 -0.020335119	 -0.691947672	 -1.142006605
H	 -0.039510098	 -1.272961904	 -2.055747872
C	 0.016775950	 0.699410821	 -1.194429280
H	 0.027764380	 1.205005273	 -2.149485644
C	 0.038102661	 1.412646479	 -0.000000000
H	 0.067532763	 2.493443543	 0.000062312
C	 0.020659765	 0.699270671	 1.194415617
H	 0.034700437	 1.204790963	 2.149470107
C	 -0.016911163	 -0.692003372	 1.142005909
H	 -0.033406512	 -1.273065049	 2.055766516
N	 -5.616699902	 -2.199967840	 3.000486177
C	 -4.561407349	 -2.746153845	 2.379732034
H	 -4.529031516	 -3.828772608	 2.368095924
C	 -3.547224825	 -2.007935055	 1.774392244
H	 -2.718736044	 -2.503476300	 1.287692483
C	 -3.624228800	 -0.618958654	 1.810281785
H	 -2.856156827	 -0.010868157	 1.351455002
C	 -4.712482920	 -0.034578549	 2.450226042
H	 -4.819530930	 1.039712385	 2.506042780
C	 -5.674322829	 -0.861513951	 3.025258156
H	 -6.532044457	 -0.433740835	 3.529907126
