22
0  1  0  1  0  1  11  11  1.14213  1.86100 -0.35729 -1.07617 -0.44624 -0.81631 11.52431 11.51781 11.50384  1.29740 -11.07431 26.80708 -3.04134 -11.39402
N	 -2.537257651	 -1.393595166	 -0.000007605
C	 -2.553865392	 -0.691947672	 1.142006605
H	 -2.534690414	 -1.272961904	 2.055747872
C	 -2.590976462	 0.699410821	 1.194429280
H	 -2.601964892	 1.205005273	 2.149485644
C	 -2.612303172	 1.412646479	 -0.000000000
H	 -2.641733275	 2.493443543	 -0.000062312
C	 -2.594860276	 0.699270671	 -1.194415617
H	 -2.608900949	 1.204790963	 -2.149470107
C	 -2.557289348	 -0.692003372	 -1.142005909
H	 -2.540793999	 -1.273065049	 -2.055766516
N	 2.343377786	 -2.145627054	 1.566183777
C	 1.278142652	 -2.691813059	 0.962650689
H	 1.251877569	 -3.774431822	 0.940430450
C	 0.246811754	 -1.953594269	 0.387012754
H	 -0.588926994	 -2.449135514	 -0.087129696
C	 0.316394994	 -0.564617868	 0.435755382
H	 -0.464996642	 0.043472629	 -0.000001067
C	 1.414730038	 0.019762237	 1.058238967
H	 1.516592758	 1.094053171	 1.123036895
C	 2.393642412	 -0.807173165	 1.603700707
H	 3.259542053	 -0.379400049	 2.094184940
