22
0  1  0  1  0  1  11  11 -2.09681 -1.78804 -2.70744 -3.01621 -2.76186 -2.90946  2.99764  2.99492  2.99361 -2.10107 -3.97935  8.63873 -1.14991 -5.61054
N	 -0.036942860	 -1.393595166	 0.000007605
C	 -0.020335119	 -0.691947672	 -1.142006605
H	 -0.039510098	 -1.272961904	 -2.055747872
C	 0.016775950	 0.699410821	 -1.194429280
H	 0.027764380	 1.205005273	 -2.149485644
C	 0.038102661	 1.412646479	 -0.000000000
H	 0.067532763	 2.493443543	 0.000062312
C	 0.020659765	 0.699270671	 1.194415617
H	 0.034700437	 1.204790963	 2.149470107
C	 -0.016911163	 -0.692003372	 1.142005909
H	 -0.033406512	 -1.273065049	 2.055766516
N	 -5.253535217	 -2.167363369	 -2.724574541
C	 -4.188300083	 -2.713549374	 -2.121041453
H	 -4.162035000	 -3.796168137	 -2.098821214
C	 -3.156969185	 -1.975330584	 -1.545403518
H	 -2.321230437	 -2.470871829	 -1.071261068
C	 -3.226552426	 -0.586354183	 -1.594146146
H	 -2.445160790	 0.021736314	 -1.158389697
C	 -4.324887470	 -0.001974078	 -2.216629731
H	 -4.426750188	 1.072316856	 -2.281427659
C	 -5.303799843	 -0.828909480	 -2.762091470
H	 -6.169699485	 -0.401136364	 -3.252575704
