22
0  1  0  1  0  1  11  11 -3.30962 -3.04963 -4.02467 -4.28466 -4.07657 -4.19759  1.29140  1.28919  1.28749 -3.44386 -2.92890  5.43982 -0.77377 -5.18100
N	 -2.537257651	 -1.393595166	 -0.000007605
C	 -2.553865392	 -0.691947672	 1.142006605
H	 -2.534690414	 -1.272961904	 2.055747872
C	 -2.590976462	 0.699410821	 1.194429280
H	 -2.601964892	 1.205005273	 2.149485644
C	 -2.612303172	 1.412646479	 -0.000000000
H	 -2.641733275	 2.493443543	 -0.000062312
C	 -2.594860276	 0.699270671	 -1.194415617
H	 -2.608900949	 1.204790963	 -2.149470107
C	 -2.557289348	 -0.692003372	 -1.142005909
H	 -2.540793999	 -1.273065049	 -2.055766516
N	 2.834818373	 -2.189099683	 -1.649031176
C	 1.779525820	 -2.735285688	 -1.028277033
H	 1.747149987	 -3.817904451	 -1.016640923
C	 0.765343296	 -1.997066898	 -0.422937243
H	 -0.063145485	 -2.492608143	 0.063762518
C	 0.842347270	 -0.608090497	 -0.458826783
H	 0.074275297	 0.000000000	 0.000000000
C	 1.930601390	 -0.023710392	 -1.098771040
H	 2.037649402	 1.050580542	 -1.154587779
C	 2.892441300	 -0.850645794	 -1.673803154
H	 3.750162927	 -0.422872678	 -2.178452124
