22
0  1  0  1  0  1  11  11 -2.50101 -2.26667 -3.00293 -3.23727 -3.04956 -3.15813  1.56857  1.56679  1.56667 -2.54194 -2.83088  5.57978 -0.77738 -4.51347
N	 -0.036942860	 -1.393595166	 0.000007605
C	 -0.020335119	 -0.691947672	 -1.142006605
H	 -0.039510098	 -1.272961904	 -2.055747872
C	 0.016775950	 0.699410821	 -1.194429280
H	 0.027764380	 1.205005273	 -2.149485644
C	 0.038102661	 1.412646479	 -0.000000000
H	 0.067532763	 2.493443543	 0.000062312
C	 0.020659765	 0.699270671	 1.194415617
H	 0.034700437	 1.204790963	 2.149470107
C	 -0.016911163	 -0.692003372	 1.142005909
H	 -0.033406512	 -1.273065049	 2.055766516
N	 -5.344179076	 -2.178231526	 2.871776685
C	 -4.288886523	 -2.724417531	 2.251022542
H	 -4.256510690	 -3.807036294	 2.239386432
C	 -3.274703999	 -1.986198741	 1.645682752
H	 -2.446215218	 -2.481739986	 1.158982991
C	 -3.351707974	 -0.597222340	 1.681572293
H	 -2.583636001	 0.010868157	 1.222745510
C	 -4.439962094	 -0.012842235	 2.321516550
H	 -4.547010104	 1.061448699	 2.377333288
C	 -5.401802003	 -0.839777637	 2.896548664
H	 -6.259523631	 -0.412004521	 3.401197634
