22
0  1  0  1  0  1  11  11 -2.41757 -2.25172 -2.79184 -2.95769 -2.82690 -2.90349  0.31889  0.31790  0.31559 -2.53329 -2.38940  3.77708 -0.72869 -3.19227
N	 -2.537257651	 -1.393595166	 -0.000007605
C	 -2.553865392	 -0.691947672	 1.142006605
H	 -2.534690414	 -1.272961904	 2.055747872
C	 -2.590976462	 0.699410821	 1.194429280
H	 -2.601964892	 1.205005273	 2.149485644
C	 -2.612303172	 1.412646479	 -0.000000000
H	 -2.641733275	 2.493443543	 -0.000062312
C	 -2.594860276	 0.699270671	 -1.194415617
H	 -2.608900949	 1.204790963	 -2.149470107
C	 -2.557289348	 -0.692003372	 -1.142005909
H	 -2.540793999	 -1.273065049	 -2.055766516
N	 2.878062567	 -3.503423947	 -0.047831352
C	 1.544705721	 -3.364291287	 -0.037888771
H	 0.974075882	 -4.284938464	 -0.043999521
C	 0.891058405	 -2.134486199	 -0.020740397
H	 -0.188825981	 -2.083216400	 -0.013490430
C	 1.658840213	 -0.973913434	 -0.013319663
H	 1.188153657	 0.000000000	 0.000000000
C	 3.044324847	 -1.099039339	 -0.023400587
H	 3.685925680	 -0.228983432	 -0.018215295
C	 3.601233289	 -2.375433331	 -0.040473051
H	 4.676930481	 -2.502537547	 -0.048651065
