22
0  1  0  1  0  1  11  11  0.72532  1.27048 -0.21491 -0.76007 -0.28772 -0.56280  8.78576  8.78121  8.77646  0.80713 -8.34939 20.46028 -2.50723 -8.79653
N	 -0.036942860	 -1.393595166	 0.000007605
C	 -0.020335119	 -0.691947672	 -1.142006605
H	 -0.039510098	 -1.272961904	 -2.055747872
C	 0.016775950	 0.699410821	 -1.194429280
H	 0.027764380	 1.205005273	 -2.149485644
C	 0.038102661	 1.412646479	 -0.000000000
H	 0.067532763	 2.493443543	 0.000062312
C	 0.020659765	 0.699270671	 1.194415617
H	 0.034700437	 1.204790963	 2.149470107
C	 -0.016911163	 -0.692003372	 1.142005909
H	 -0.033406512	 -1.273065049	 2.055766516
N	 -4.935397839	 -2.145627054	 2.678712446
C	 -3.880105286	 -2.691813059	 2.057958303
H	 -3.847729453	 -3.774431822	 2.046322193
C	 -2.865922762	 -1.953594269	 1.452618513
H	 -2.037433981	 -2.449135514	 0.965918752
C	 -2.942926737	 -0.564617868	 1.488508054
H	 -2.174854764	 0.043472629	 1.029681271
C	 -4.031180857	 0.019762237	 2.128452311
H	 -4.138228867	 1.094053171	 2.184269049
C	 -4.993020766	 -0.807173165	 2.703484425
H	 -5.850742394	 -0.379400049	 3.208133395
