22
0  1  0  1  0  1  11  11 -2.73165 -2.28976 -3.63756 -4.07945 -3.71260 -3.92740  4.00982  4.00252  3.99608 -2.76028 -5.63122 12.06635 -1.62225 -7.57316
N	 1.322762722	 -0.010375977	 1.019183728
C	 0.651286010	 -1.148992028	 0.796801192
H	 1.200418421	 -2.065528084	 0.973672822
C	 -0.672681303	 -1.194711724	 0.366656928
H	 -1.157193621	 -2.147321411	 0.206464071
C	 -1.347196755	 0.003133988	 0.152144011
H	 -2.375356526	 0.008405422	 -0.182293017
C	 -0.664557967	 1.194090624	 0.379001986
H	 -1.142626333	 2.151557646	 0.228720506
C	 0.658895764	 1.134978544	 0.808859868
H	 1.214102717	 2.045910451	 0.995438309
N	 0.508103264	 0.002966156	 6.507984430
C	 1.378771281	 -0.002646635	 5.488571397
H	 2.426627855	 -0.001398110	 5.762874189
C	 1.005385545	 -0.009714396	 4.146743325
H	 1.752846208	 -0.013878415	 3.365643677
C	 -0.350663012	 -0.011128460	 3.834327859
H	 -0.680391691	 -0.016583937	 2.804046411
C	 -1.268766276	 -0.005413374	 4.879497473
H	 -2.333216312	 -0.006262764	 4.690761687
C	 -0.793162472	 0.001504281	 6.188456323
H	 -1.485346135	 0.006087410	 7.021647528
