22
0  1  0  1  0  1  11  11  0.04595  0.58076 -1.13118 -1.66599 -1.21630 -1.47330  8.16587  8.16582  8.17287 -0.06419 -7.02517 18.37237 -2.33311 -9.07829
N	 -2.537257651	 -1.393595166	 -0.000007605
C	 -2.553865392	 -0.691947672	 1.142006605
H	 -2.534690414	 -1.272961904	 2.055747872
C	 -2.590976462	 0.699410821	 1.194429280
H	 -2.601964892	 1.205005273	 2.149485644
C	 -2.612303172	 1.412646479	 -0.000000000
H	 -2.641733275	 2.493443543	 -0.000062312
C	 -2.594860276	 0.699270671	 -1.194415617
H	 -2.608900949	 1.204790963	 -2.149470107
C	 -2.557289348	 -0.692003372	 -1.142005909
H	 -2.540793999	 -1.273065049	 -2.055766516
N	 3.236959994	 -0.244735298	 -0.047832419
C	 2.449789153	 -1.329889869	 -0.037889838
H	 2.961778077	 -2.284393395	 -0.044000588
C	 1.057923047	 -1.281062506	 -0.020741464
H	 0.473579906	 -2.190634918	 -0.013491497
C	 0.436728454	 -0.035857573	 -0.013320730
H	 -0.642048599	 0.043472629	 -0.000001067
C	 1.237832983	 1.101444364	 -0.023401654
H	 0.805142882	 2.092114938	 -0.018216362
C	 2.621676827	 0.945544226	 -0.040474118
H	 3.269600903	 1.813573213	 -0.048652132
