22
0  1  0  1  0  1  11  11 -3.06120 -2.90600 -3.57341 -3.72861 -3.60873 -3.67752  0.01542  0.01632  0.01754 -3.22239 -1.65885  2.37352 -0.41175 -3.52530
N	 -2.537257651	 -1.393595166	 -0.000007605
C	 -2.553865392	 -0.691947672	 1.142006605
H	 -2.534690414	 -1.272961904	 2.055747872
C	 -2.590976462	 0.699410821	 1.194429280
H	 -2.601964892	 1.205005273	 2.149485644
C	 -2.612303172	 1.412646479	 -0.000000000
H	 -2.641733275	 2.493443543	 -0.000062312
C	 -2.594860276	 0.699270671	 -1.194415617
H	 -2.608900949	 1.204790963	 -2.149470107
C	 -2.557289348	 -0.692003372	 -1.142005909
H	 -2.540793999	 -1.273065049	 -2.055766516
N	 3.136321175	 -2.210835997	 1.566185377
C	 2.071086041	 -2.757022002	 0.962652289
H	 2.044820958	 -3.839640765	 0.940432050
C	 1.039755143	 -2.018803212	 0.387014354
H	 0.204016395	 -2.514344457	 -0.087128096
C	 1.109338383	 -0.629826811	 0.435756982
H	 0.327946747	 -0.021736314	 0.000000533
C	 2.207673427	 -0.045446706	 1.058240567
H	 2.309536147	 1.028844228	 1.123038495
C	 3.186585801	 -0.872382108	 1.603702307
H	 4.052485442	 -0.444608992	 2.094186540
