22
0  1  0  1  0  1  11  11 -2.45511 -2.32045 -2.80204 -2.93670 -2.83510 -2.89321  0.13805  0.13802  0.13950 -2.53818 -1.51708  2.28249 -0.37378 -2.92982
N	 -0.036942860	 -1.393595166	 0.000007605
C	 -0.020335119	 -0.691947672	 -1.142006605
H	 -0.039510098	 -1.272961904	 -2.055747872
C	 0.016775950	 0.699410821	 -1.194429280
H	 0.027764380	 1.205005273	 -2.149485644
C	 0.038102661	 1.412646479	 -0.000000000
H	 0.067532763	 2.493443543	 0.000062312
C	 0.020659765	 0.699270671	 1.194415617
H	 0.034700437	 1.204790963	 2.149470107
C	 -0.016911163	 -0.692003372	 1.142005909
H	 -0.033406512	 -1.273065049	 2.055766516
N	 -5.661947321	 -2.199967840	 -2.917640379
C	 -4.596712187	 -2.746153845	 -2.314107291
H	 -4.570447104	 -3.828772608	 -2.291887052
C	 -3.565381289	 -2.007935055	 -1.738469356
H	 -2.729642541	 -2.503476300	 -1.264326906
C	 -3.634964530	 -0.618958654	 -1.787211984
H	 -2.853572894	 -0.010868157	 -1.351455535
C	 -4.733299574	 -0.034578549	 -2.409695569
H	 -4.835162292	 1.039712385	 -2.474493497
C	 -5.712211947	 -0.861513951	 -2.955157308
H	 -6.578111589	 -0.433740835	 -3.445641542
