22
0  1  0  1  0  1  11  11 -2.57203 -2.39439 -2.98780 -3.16544 -3.02733 -3.10682  0.67519  0.67432  0.67516 -2.63959 -2.05010  3.57726 -0.53370 -3.63304
N	 -0.036942860	 -1.393595166	 0.000007605
C	 -0.020335119	 -0.691947672	 -1.142006605
H	 -0.039510098	 -1.272961904	 -2.055747872
C	 0.016775950	 0.699410821	 -1.194429280
H	 0.027764380	 1.205005273	 -2.149485644
C	 0.038102661	 1.412646479	 -0.000000000
H	 0.067532763	 2.493443543	 0.000062312
C	 0.020659765	 0.699270671	 1.194415617
H	 0.034700437	 1.204790963	 2.149470107
C	 -0.016911163	 -0.692003372	 1.142005909
H	 -0.033406512	 -1.273065049	 2.055766516
N	 -5.480439489	 -2.189099683	 2.936131431
C	 -4.425146936	 -2.735285688	 2.315377288
H	 -4.392771103	 -3.817904451	 2.303741178
C	 -3.410964412	 -1.997066898	 1.710037498
H	 -2.582475631	 -2.492608143	 1.223337737
C	 -3.487968387	 -0.608090497	 1.745927039
H	 -2.719896414	 -0.000000000	 1.287100256
C	 -4.576222507	 -0.023710392	 2.385871296
H	 -4.683270517	 1.050580542	 2.441688034
C	 -5.538062416	 -0.850645794	 2.960903410
H	 -6.395784044	 -0.422872678	 3.465552380
