22
0  1  0  1  0  1  11  11 22.71094 24.03202 21.10209 19.78101 21.01284 20.28389 37.33902 37.32999 37.29018 21.54022 -34.34218 82.39065 -9.33579 -17.17246
N	 -0.036942860	 -1.393595166	 0.000007605
C	 -0.020335119	 -0.691947672	 -1.142006605
H	 -0.039510098	 -1.272961904	 -2.055747872
C	 0.016775950	 0.699410821	 -1.194429280
H	 0.027764380	 1.205005273	 -2.149485644
C	 0.038102661	 1.412646479	 -0.000000000
H	 0.067532763	 2.493443543	 0.000062312
C	 0.020659765	 0.699270671	 1.194415617
H	 0.034700437	 1.204790963	 2.149470107
C	 -0.016911163	 -0.692003372	 1.142005909
H	 -0.033406512	 -1.273065049	 2.055766516
N	 -3.786996928	 -4.339185182	 0.047832952
C	 -2.453640082	 -4.200052522	 0.037890371
H	 -1.883010243	 -5.120699699	 0.044001121
C	 -1.799992766	 -2.970247434	 0.020741997
H	 -0.720108380	 -2.918977636	 0.013492030
C	 -2.567774575	 -1.809674670	 0.013321263
H	 -2.097088019	 -0.835761236	 0.000001600
C	 -3.953259209	 -1.934800575	 0.023402187
H	 -4.594860041	 -1.064744668	 0.018216895
C	 -4.510167650	 -3.211194567	 0.040474651
H	 -5.585864842	 -3.338298783	 0.048652665
