22
0  1  0  1  0  1  11  11 11.47968 12.68385  9.21707  8.01291  9.10728  8.46453 27.15863 27.15321 27.12934 11.65688 -22.76819 57.67981 -6.17236 -17.08239
N	 -2.537257651	 -1.393595166	 -0.000007605
C	 -2.553865392	 -0.691947672	 1.142006605
H	 -2.534690414	 -1.272961904	 2.055747872
C	 -2.590976462	 0.699410821	 1.194429280
H	 -2.601964892	 1.205005273	 2.149485644
C	 -2.612303172	 1.412646479	 -0.000000000
H	 -2.641733275	 2.493443543	 -0.000062312
C	 -2.594860276	 0.699270671	 -1.194415617
H	 -2.608900949	 1.204790963	 -2.149470107
C	 -2.557289348	 -0.692003372	 -1.142005909
H	 -2.540793999	 -1.273065049	 -2.055766516
N	 2.079063322	 -2.123890740	 1.566183244
C	 1.013828188	 -2.670076745	 0.962650156
H	 0.987563105	 -3.752695508	 0.940429917
C	 -0.017502710	 -1.931857955	 0.387012221
H	 -0.853241458	 -2.427399200	 -0.087130229
C	 0.052080530	 -0.542881554	 0.435754849
H	 -0.729311106	 0.065208943	 -0.000001600
C	 1.150415574	 0.041498551	 1.058238434
H	 1.252278294	 1.115789485	 1.123036362
C	 2.129327948	 -0.785436851	 1.603700174
H	 2.995227589	 -0.357663735	 2.094184407
