22
0  1  0  1  0  1  11  11  0.79622  1.51259 -0.55518 -1.27156 -0.64626 -1.01267 10.86400 10.85690 10.84524  0.91758 -10.89350 26.21327 -3.20805 -11.19414
N	 1.322762722	 -0.010375977	 1.019183728
C	 0.651286010	 -1.148992028	 0.796801192
H	 1.200418421	 -2.065528084	 0.973672822
C	 -0.672681303	 -1.194711724	 0.366656928
H	 -1.157193621	 -2.147321411	 0.206464071
C	 -1.347196755	 0.003133988	 0.152144011
H	 -2.375356526	 0.008405422	 -0.182293017
C	 -0.664557967	 1.194090624	 0.379001986
H	 -1.142626333	 2.151557646	 0.228720506
C	 0.658895764	 1.134978544	 0.808859868
H	 1.214102717	 2.045910451	 0.995438309
N	 0.560347322	 0.004517376	 6.254450490
C	 1.431015339	 -0.001095415	 5.235037457
H	 2.478871913	 0.000153110	 5.509340249
C	 1.057629603	 -0.008163176	 3.893209385
H	 1.805090266	 -0.012327195	 3.112109737
C	 -0.298418954	 -0.009577240	 3.580793919
H	 -0.628147633	 -0.015032717	 2.550512471
C	 -1.216522218	 -0.003862154	 4.625963533
H	 -2.280972254	 -0.004711544	 4.437227747
C	 -0.740918414	 0.003055501	 5.934922383
H	 -1.433102077	 0.007638630	 6.768113588
