22
0  1  0  1  0  1  11  11  5.82416  6.48568  4.62323  3.96171  4.53833  4.20801 15.37773 15.37665 15.38385  5.36328 -10.63694 30.51703 -4.12995 -10.38687
N	 -0.036942860	 -1.393595166	 0.000007605
C	 -0.020335119	 -0.691947672	 -1.142006605
H	 -0.039510098	 -1.272961904	 -2.055747872
C	 0.016775950	 0.699410821	 -1.194429280
H	 0.027764380	 1.205005273	 -2.149485644
C	 0.038102661	 1.412646479	 -0.000000000
H	 0.067532763	 2.493443543	 0.000062312
C	 0.020659765	 0.699270671	 1.194415617
H	 0.034700437	 1.204790963	 2.149470107
C	 -0.016911163	 -0.692003372	 1.142005909
H	 -0.033406512	 -1.273065049	 2.055766516
N	 -5.727309123	 0.677971195	 0.047832952
C	 -4.940138282	 -0.407183376	 0.037890371
H	 -5.452127206	 -1.361686902	 0.044001121
C	 -3.548272176	 -0.358356013	 0.020741997
H	 -2.963929035	 -1.267928426	 0.013492030
C	 -2.927077584	 0.886848920	 0.013321263
H	 -1.848300531	 0.966179122	 0.000001600
C	 -3.728182113	 2.024150857	 0.023402187
H	 -3.295492011	 3.014821430	 0.018216895
C	 -5.112025956	 1.868250718	 0.040474651
H	 -5.759950032	 2.736279706	 0.048652665
