22
0  1  0  1  0  1  11  11 -2.99495 -2.86281 -3.29161 -3.42375 -3.31843 -3.37822 -0.65918 -0.65681 -0.65421 -3.19119 -2.35748  2.54463 -0.55398 -2.82435
N	 -0.036942860	 -1.393595166	 0.000007605
C	 -0.020335119	 -0.691947672	 -1.142006605
H	 -0.039510098	 -1.272961904	 -2.055747872
C	 0.016775950	 0.699410821	 -1.194429280
H	 0.027764380	 1.205005273	 -2.149485644
C	 0.038102661	 1.412646479	 -0.000000000
H	 0.067532763	 2.493443543	 0.000062312
C	 0.020659765	 0.699270671	 1.194415617
H	 0.034700437	 1.204790963	 2.149470107
C	 -0.016911163	 -0.692003372	 1.142005909
H	 -0.033406512	 -1.273065049	 2.055766516
N	 -4.838196856	 -4.865747372	 0.047831085
C	 -3.504840010	 -4.726614712	 0.037888504
H	 -2.934210171	 -5.647261889	 0.043999254
C	 -2.851192694	 -3.496809624	 0.020740130
H	 -1.771308308	 -3.445539826	 0.013490163
C	 -3.618974503	 -2.336236860	 0.013319396
H	 -3.148287947	 -1.362323426	 -0.000000267
C	 -5.004459137	 -2.461362765	 0.023400320
H	 -5.646059969	 -1.591306858	 0.018215028
C	 -5.561367578	 -3.737756757	 0.040472784
H	 -6.637064770	 -3.864860973	 0.048650798
