22
0  1  0  1  0  1  11  11 -1.87535 -1.76521 -2.19406 -2.30420 -2.22639 -2.27109  0.35042  0.34965  0.35032 -1.97352 -1.01605  1.87460 -0.33361 -2.49845
N	 -0.036942860	 -1.393595166	 0.000007605
C	 -0.020335119	 -0.691947672	 -1.142006605
H	 -0.039510098	 -1.272961904	 -2.055747872
C	 0.016775950	 0.699410821	 -1.194429280
H	 0.027764380	 1.205005273	 -2.149485644
C	 0.038102661	 1.412646479	 -0.000000000
H	 0.067532763	 2.493443543	 0.000062312
C	 0.020659765	 0.699270671	 1.194415617
H	 0.034700437	 1.204790963	 2.149470107
C	 -0.016911163	 -0.692003372	 1.142005909
H	 -0.033406512	 -1.273065049	 2.055766516
N	 -6.654115306	 1.052379185	 0.047831085
C	 -5.866944465	 -0.032775386	 0.037888504
H	 -6.378933389	 -0.987278912	 0.043999254
C	 -4.475078359	 0.016051977	 0.020740130
H	 -3.890735218	 -0.893520436	 0.013490163
C	 -3.853883767	 1.261256910	 0.013319396
H	 -2.775106714	 1.340587112	 -0.000000267
C	 -4.654988296	 2.398558847	 0.023400320
H	 -4.222298194	 3.389229420	 0.018215028
C	 -6.038832139	 2.242658708	 0.040472784
H	 -6.686756215	 3.110687696	 0.048650798
