22
0  1  0  1  0  1  11  11 -2.66941 -2.38469 -3.34839 -3.63311 -3.41706 -3.54059  2.02821  2.02269  2.02594 -2.78240 -2.86239  6.37581 -0.95313 -5.34269
N	 -2.537257651	 -1.393595166	 -0.000007605
C	 -2.553865392	 -0.691947672	 1.142006605
H	 -2.534690414	 -1.272961904	 2.055747872
C	 -2.590976462	 0.699410821	 1.194429280
H	 -2.601964892	 1.205005273	 2.149485644
C	 -2.612303172	 1.412646479	 -0.000000000
H	 -2.641733275	 2.493443543	 -0.000062312
C	 -2.594860276	 0.699270671	 -1.194415617
H	 -2.608900949	 1.204790963	 -2.149470107
C	 -2.557289348	 -0.692003372	 -1.142005909
H	 -2.540793999	 -1.273065049	 -2.055766516
N	 3.600234447	 -0.277339770	 -0.047831619
C	 2.813063606	 -1.362494341	 -0.037889038
H	 3.325052530	 -2.316997867	 -0.043999788
C	 1.421197500	 -1.313666978	 -0.020740664
H	 0.836854359	 -2.223239390	 -0.013490697
C	 0.800002907	 -0.068462045	 -0.013319930
H	 -0.278774146	 0.010868157	 -0.000000267
C	 1.601107436	 1.068839892	 -0.023400854
H	 1.168417335	 2.059510466	 -0.018215562
C	 2.984951280	 0.912939754	 -0.040473318
H	 3.632875356	 1.780968741	 -0.048651332
