22
0  1  0  1  0  1  11  11 -2.72838 -2.63236 -2.97876 -3.07479 -3.00019 -3.04170 -0.90715 -0.90456 -0.90073 -2.90569 -1.80261  1.50606 -0.38714 -2.22201
N	 -0.036942860	 -1.393595166	 0.000007605
C	 -0.020335119	 -0.691947672	 -1.142006605
H	 -0.039510098	 -1.272961904	 -2.055747872
C	 0.016775950	 0.699410821	 -1.194429280
H	 0.027764380	 1.205005273	 -2.149485644
C	 0.038102661	 1.412646479	 -0.000000000
H	 0.067532763	 2.493443543	 0.000062312
C	 0.020659765	 0.699270671	 1.194415617
H	 0.034700437	 1.204790963	 2.149470107
C	 -0.016911163	 -0.692003372	 1.142005909
H	 -0.033406512	 -1.273065049	 2.055766516
N	 -4.988368275	 -4.940970542	 0.047830819
C	 -3.655011429	 -4.801837882	 0.037888238
H	 -3.084381590	 -5.722485059	 0.043998988
C	 -3.001364113	 -3.572032794	 0.020739864
H	 -1.921479727	 -3.520762996	 0.013489897
C	 -3.769145922	 -2.411460030	 0.013319130
H	 -3.298459366	 -1.437546596	 -0.000000533
C	 -5.154630556	 -2.536585935	 0.023400054
H	 -5.796231388	 -1.666530028	 0.018214762
C	 -5.711538997	 -3.812979927	 0.040472518
H	 -6.787236189	 -3.940084143	 0.048650532
