22
0  1  0  1  0  1  11  11 11.67003 12.88269  9.38388  8.17122  9.27370  8.62593 27.45444 27.44888 27.42424 11.85685 -23.08915 58.37584 -6.24366 -17.18617
N	 -2.537257651	 -1.393595166	 -0.000007605
C	 -2.553865392	 -0.691947672	 1.142006605
H	 -2.534690414	 -1.272961904	 2.055747872
C	 -2.590976462	 0.699410821	 1.194429280
H	 -2.601964892	 1.205005273	 2.149485644
C	 -2.612303172	 1.412646479	 -0.000000000
H	 -2.641733275	 2.493443543	 -0.000062312
C	 -2.594860276	 0.699270671	 -1.194415617
H	 -2.608900949	 1.204790963	 -2.149470107
C	 -2.557289348	 -0.692003372	 -1.142005909
H	 -2.540793999	 -1.273065049	 -2.055766516
N	 2.038682079	 -2.123890740	 -1.649032776
C	 0.983389526	 -2.670076745	 -1.028278633
H	 0.951013693	 -3.752695508	 -1.016642523
C	 -0.030792998	 -1.931857955	 -0.422938843
H	 -0.859281779	 -2.427399200	 0.063760918
C	 0.046210976	 -0.542881554	 -0.458828383
H	 -0.721860997	 0.065208943	 -0.000001600
C	 1.134465096	 0.041498551	 -1.098772640
H	 1.241513108	 1.115789485	 -1.154589379
C	 2.096305006	 -0.785436851	 -1.673804754
H	 2.954026633	 -0.357663735	 -2.178453724
