22
0  1  0  1  0  1  11  11 -1.74338 -1.65849 -2.01578 -2.10067 -2.04180 -2.07550  0.07271  0.07298  0.07376 -1.83621 -0.77019  1.22906 -0.23724 -2.05784
N	 -0.036942860	 -1.393595166	 0.000007605
C	 -0.020335119	 -0.691947672	 -1.142006605
H	 -0.039510098	 -1.272961904	 -2.055747872
C	 0.016775950	 0.699410821	 -1.194429280
H	 0.027764380	 1.205005273	 -2.149485644
C	 0.038102661	 1.412646479	 -0.000000000
H	 0.067532763	 2.493443543	 0.000062312
C	 0.020659765	 0.699270671	 1.194415617
H	 0.034700437	 1.204790963	 2.149470107
C	 -0.016911163	 -0.692003372	 1.142005909
H	 -0.033406512	 -1.273065049	 2.055766516
N	 -6.786516190	 1.105866040	 0.047830819
C	 -5.999345349	 0.020711469	 0.037888238
H	 -6.511334273	 -0.933792057	 0.043998988
C	 -4.607479243	 0.069538832	 0.020739864
H	 -4.023136102	 -0.840033581	 0.013489897
C	 -3.986284651	 1.314743765	 0.013319130
H	 -2.907507598	 1.394073967	 -0.000000533
C	 -4.787389180	 2.452045702	 0.023400054
H	 -4.354699078	 3.442716275	 0.018214762
C	 -6.171233023	 2.296145563	 0.040472518
H	 -6.819157099	 3.164174551	 0.048650532
