22
0  1  0  1  0  1  11  11 -3.25193 -3.05124 -3.85739 -4.05808 -3.90018 -3.99150  0.50866  0.50827  0.50818 -3.40683 -2.17993  3.60242 -0.56028 -4.26904
N	 -2.537257651	 -1.393595166	 -0.000007605
C	 -2.553865392	 -0.691947672	 1.142006605
H	 -2.534690414	 -1.272961904	 2.055747872
C	 -2.590976462	 0.699410821	 1.194429280
H	 -2.601964892	 1.205005273	 2.149485644
C	 -2.612303172	 1.412646479	 -0.000000000
H	 -2.641733275	 2.493443543	 -0.000062312
C	 -2.594860276	 0.699270671	 -1.194415617
H	 -2.608900949	 1.204790963	 -2.149470107
C	 -2.557289348	 -0.692003372	 -1.142005909
H	 -2.540793999	 -1.273065049	 -2.055766516
N	 2.967507755	 -2.199967840	 -1.649030909
C	 1.912215202	 -2.746153845	 -1.028276766
H	 1.879839369	 -3.828772608	 -1.016640656
C	 0.898032678	 -2.007935055	 -0.422936976
H	 0.069543897	 -2.503476300	 0.063762785
C	 0.975036652	 -0.618958654	 -0.458826516
H	 0.206964679	 -0.010868157	 0.000000267
C	 2.063290772	 -0.034578549	 -1.098770773
H	 2.170338784	 1.039712385	 -1.154587512
C	 3.025130682	 -0.861513951	 -1.673802887
H	 3.882852309	 -0.433740835	 -2.178451857
