22
0  1  0  1  0  1  11  11  5.93121  6.76164  4.22450  3.39407  4.12505  3.70593 17.61958 17.62343 17.63168  5.57192 -13.13850 35.88270 -4.20110 -12.97118
N	 -2.537257651	 -1.393595166	 -0.000007605
C	 -2.553865392	 -0.691947672	 1.142006605
H	 -2.534690414	 -1.272961904	 2.055747872
C	 -2.590976462	 0.699410821	 1.194429280
H	 -2.601964892	 1.205005273	 2.149485644
C	 -2.612303172	 1.412646479	 -0.000000000
H	 -2.641733275	 2.493443543	 -0.000062312
C	 -2.594860276	 0.699270671	 -1.194415617
H	 -2.608900949	 1.204790963	 -2.149470107
C	 -2.557289348	 -0.692003372	 -1.142005909
H	 -2.540793999	 -1.273065049	 -2.055766516
N	 2.994777025	 -0.222998984	 -0.047832952
C	 2.207606184	 -1.308153555	 -0.037890371
H	 2.719595108	 -2.262657081	 -0.044001121
C	 0.815740078	 -1.259326192	 -0.020741997
H	 0.231396937	 -2.168898604	 -0.013492030
C	 0.194545485	 -0.014121259	 -0.013321263
H	 -0.884231568	 0.065208943	 -0.000001600
C	 0.995650014	 1.123180678	 -0.023402187
H	 0.562959913	 2.113851252	 -0.018216895
C	 2.379493858	 0.967280540	 -0.040474651
H	 3.027417934	 1.835309527	 -0.048652665
