22
0  1  0  1  0  1  11  11 -3.11564 -2.77990 -3.96805 -4.30380 -4.02952 -4.18967  2.52189  2.51780  2.51403 -3.20992 -4.01133  8.18168 -1.07979 -6.30049
N	 -2.537257651	 -1.393595166	 -0.000007605
C	 -2.553865392	 -0.691947672	 1.142006605
H	 -2.534690414	 -1.272961904	 2.055747872
C	 -2.590976462	 0.699410821	 1.194429280
H	 -2.601964892	 1.205005273	 2.149485644
C	 -2.612303172	 1.412646479	 -0.000000000
H	 -2.641733275	 2.493443543	 -0.000062312
C	 -2.594860276	 0.699270671	 -1.194415617
H	 -2.608900949	 1.204790963	 -2.149470107
C	 -2.557289348	 -0.692003372	 -1.142005909
H	 -2.540793999	 -1.273065049	 -2.055766516
N	 2.702128991	 -2.178231526	 -1.649031443
C	 1.646836438	 -2.724417531	 -1.028277300
H	 1.614460605	 -3.807036294	 -1.016641190
C	 0.632653914	 -1.986198741	 -0.422937510
H	 -0.195834867	 -2.481739986	 0.063762251
C	 0.709657888	 -0.597222340	 -0.458827050
H	 -0.058414085	 0.010868157	 -0.000000267
C	 1.797912008	 -0.012842235	 -1.098771307
H	 1.904960020	 1.061448699	 -1.154588046
C	 2.759751918	 -0.839777637	 -1.673803421
H	 3.617473545	 -0.412004521	 -2.178452391
