22
0  1  0  1  0  1  11  11 -3.31356 -3.05330 -4.02202 -4.28228 -4.07445 -4.19528  1.27746  1.27506  1.27344 -3.44759 -2.91815  5.41796 -0.77388 -5.17352
N	 -2.537257651	 -1.393595166	 -0.000007605
C	 -2.553865392	 -0.691947672	 1.142006605
H	 -2.534690414	 -1.272961904	 2.055747872
C	 -2.590976462	 0.699410821	 1.194429280
H	 -2.601964892	 1.205005273	 2.149485644
C	 -2.612303172	 1.412646479	 -0.000000000
H	 -2.641733275	 2.493443543	 -0.000062312
C	 -2.594860276	 0.699270671	 -1.194415617
H	 -2.608900949	 1.204790963	 -2.149470107
C	 -2.557289348	 -0.692003372	 -1.142005909
H	 -2.540793999	 -1.273065049	 -2.055766516
N	 2.872006712	 -2.189099683	 1.566184844
C	 1.806771578	 -2.735285688	 0.962651756
H	 1.780506495	 -3.817904451	 0.940431517
C	 0.775440680	 -1.997066898	 0.387013821
H	 -0.060298068	 -2.492608143	 -0.087128629
C	 0.845023920	 -0.608090497	 0.435756449
H	 0.063632284	 0.000000000	 0.000000000
C	 1.943358964	 -0.023710392	 1.058240034
H	 2.045221684	 1.050580542	 1.123037962
C	 2.922271338	 -0.850645794	 1.603701774
H	 3.788170979	 -0.422872678	 2.094186007
