22
0  1  0  1  0  1  11  11 10.65612 11.82932  8.60052  7.42732  8.48979  7.86797 25.71921 25.71390 25.69593 10.73529 -21.75199 55.50888 -6.38244 -16.63916
N	 1.322762722	 -0.010375977	 1.019183728
C	 0.651286010	 -1.148992028	 0.796801192
H	 1.200418421	 -2.065528084	 0.973672822
C	 -0.672681303	 -1.194711724	 0.366656928
H	 -1.157193621	 -2.147321411	 0.206464071
C	 -1.347196755	 0.003133988	 0.152144011
H	 -2.375356526	 0.008405422	 -0.182293017
C	 -0.664557967	 1.194090624	 0.379001986
H	 -1.142626333	 2.151557646	 0.228720506
C	 0.658895764	 1.134978544	 0.808859868
H	 1.214102717	 2.045910451	 0.995438309
N	 0.612591380	 0.006068595	 6.000916549
C	 1.483259397	 0.000455804	 4.981503516
H	 2.531115971	 0.001704329	 5.255806308
C	 1.109873661	 -0.006611957	 3.639675444
H	 1.857334324	 -0.010775976	 2.858575796
C	 -0.246174896	 -0.008026021	 3.327259978
H	 -0.575903575	 -0.013481498	 2.296978530
C	 -1.164278160	 -0.002310935	 4.372429592
H	 -2.228728196	 -0.003160325	 4.183693806
C	 -0.688674356	 0.004606720	 5.681388442
H	 -1.380858019	 0.009189849	 6.514579647
