22
0  1  0  1  0  1  11  11  5.60754  6.29424  4.44259  3.75588  4.37768  4.01245 14.42668 14.41985 14.40621  5.50236 -14.58557 36.73332 -6.58116 -10.06423
N	 -2.537257651	 -1.393595166	 -0.000007605
C	 -2.553865392	 -0.691947672	 1.142006605
H	 -2.534690414	 -1.272961904	 2.055747872
C	 -2.590976462	 0.699410821	 1.194429280
H	 -2.601964892	 1.205005273	 2.149485644
C	 -2.612303172	 1.412646479	 -0.000000000
H	 -2.641733275	 2.493443543	 -0.000062312
C	 -2.594860276	 0.699270671	 -1.194415617
H	 -2.608900949	 1.204790963	 -2.149470107
C	 -2.557289348	 -0.692003372	 -1.142005909
H	 -2.540793999	 -1.273065049	 -2.055766516
N	 2.124529366	 -3.459951318	 -0.047832419
C	 0.791172520	 -3.320818658	 -0.037889838
H	 0.220542681	 -4.241465835	 -0.044000588
C	 0.137525204	 -2.091013570	 -0.020741464
H	 -0.942359182	 -2.039743771	 -0.013491497
C	 0.905307012	 -0.930440805	 -0.013320730
H	 0.434620456	 0.043472629	 -0.000001067
C	 2.290791646	 -1.055566710	 -0.023401654
H	 2.932392479	 -0.185510803	 -0.018216362
C	 2.847700088	 -2.331960702	 -0.040474118
H	 3.923397280	 -2.459064918	 -0.048652132
