22
0  1  0  1  0  1  11  11 -2.49591 -2.06287 -3.52066 -3.95369 -3.59155 -3.80365  4.41990  4.41434  4.40785 -2.52550 -5.58173 12.25110 -1.51963 -7.67523
N	 -2.537257651	 -1.393595166	 -0.000007605
C	 -2.553865392	 -0.691947672	 1.142006605
H	 -2.534690414	 -1.272961904	 2.055747872
C	 -2.590976462	 0.699410821	 1.194429280
H	 -2.601964892	 1.205005273	 2.149485644
C	 -2.612303172	 1.412646479	 -0.000000000
H	 -2.641733275	 2.493443543	 -0.000062312
C	 -2.594860276	 0.699270671	 -1.194415617
H	 -2.608900949	 1.204790963	 -2.149470107
C	 -2.557289348	 -0.692003372	 -1.142005909
H	 -2.540793999	 -1.273065049	 -2.055766516
N	 2.569439608	 -2.167363369	 -1.649031709
C	 1.514147055	 -2.713549374	 -1.028277566
H	 1.481771222	 -3.796168137	 -1.016641456
C	 0.499964531	 -1.975330584	 -0.422937776
H	 -0.328524250	 -2.470871829	 0.063761985
C	 0.576968505	 -0.586354183	 -0.458827316
H	 -0.191103468	 0.021736314	 -0.000000533
C	 1.665222625	 -0.001974078	 -1.098771573
H	 1.772270637	 1.072316856	 -1.154588312
C	 2.627062535	 -0.828909480	 -1.673803687
H	 3.484784162	 -0.401136364	 -2.178452657
