22
0  1  0  1  0  1  11  11 -1.56211 -1.32315 -2.10017 -2.33913 -2.15394 -2.26032  2.58146  2.57815  2.57979 -1.66881 -2.61730  6.46618 -0.97231 -4.54538
N	 -0.036942860	 -1.393595166	 0.000007605
C	 -0.020335119	 -0.691947672	 -1.142006605
H	 -0.039510098	 -1.272961904	 -2.055747872
C	 0.016775950	 0.699410821	 -1.194429280
H	 0.027764380	 1.205005273	 -2.149485644
C	 0.038102661	 1.412646479	 -0.000000000
H	 0.067532763	 2.493443543	 0.000062312
C	 0.020659765	 0.699270671	 1.194415617
H	 0.034700437	 1.204790963	 2.149470107
C	 -0.016911163	 -0.692003372	 1.142005909
H	 -0.033406512	 -1.273065049	 2.055766516
N	 -6.256912656	 0.891918618	 0.047831885
C	 -5.469741815	 -0.193235953	 0.037889304
H	 -5.981730739	 -1.147739479	 0.044000054
C	 -4.077875709	 -0.144408590	 0.020740930
H	 -3.493532568	 -1.053981003	 0.013490963
C	 -3.456681117	 1.100796343	 0.013320196
H	 -2.377904064	 1.180126545	 0.000000533
C	 -4.257785646	 2.238098280	 0.023401120
H	 -3.825095544	 3.228768853	 0.018215828
C	 -5.641629489	 2.082198141	 0.040473584
H	 -6.289553565	 2.950227129	 0.048651598
