22
0  1  0  1  0  1  11  11 -2.13878 -1.78935 -2.69399 -3.04342 -2.73959 -2.91793  2.89535  2.89363  2.88726 -2.33253 -6.47550 11.89246 -1.78252 -5.96697
N	 -0.036942860	 -1.393595166	 0.000007605
C	 -0.020335119	 -0.691947672	 -1.142006605
H	 -0.039510098	 -1.272961904	 -2.055747872
C	 0.016775950	 0.699410821	 -1.194429280
H	 0.027764380	 1.205005273	 -2.149485644
C	 0.038102661	 1.412646479	 -0.000000000
H	 0.067532763	 2.493443543	 0.000062312
C	 0.020659765	 0.699270671	 1.194415617
H	 0.034700437	 1.204790963	 2.149470107
C	 -0.016911163	 -0.692003372	 1.142005909
H	 -0.033406512	 -1.273065049	 2.055766516
N	 -4.387682601	 -4.640077862	 0.047831885
C	 -3.054325755	 -4.500945202	 0.037889304
H	 -2.483695916	 -5.421592379	 0.044000054
C	 -2.400678439	 -3.271140114	 0.020740930
H	 -1.320794053	 -3.219870316	 0.013490963
C	 -3.168460248	 -2.110567350	 0.013320196
H	 -2.697773692	 -1.136653916	 0.000000533
C	 -4.553944882	 -2.235693255	 0.023401120
H	 -5.195545714	 -1.365637348	 0.018215828
C	 -5.110853323	 -3.512087247	 0.040473584
H	 -6.186550515	 -3.639191463	 0.048651598
