22
0  1  0  1  0  1  11  11 -3.45072 -3.23775 -3.98344 -4.19641 -4.03217 -4.12735  0.26140  0.25978  0.25923 -3.59325 -2.34463  3.62610 -0.61253 -4.26219
N	 1.322762722	 -0.010375977	 1.019183728
C	 0.651286010	 -1.148992028	 0.796801192
H	 1.200418421	 -2.065528084	 0.973672822
C	 -0.672681303	 -1.194711724	 0.366656928
H	 -1.157193621	 -2.147321411	 0.206464071
C	 -1.347196755	 0.003133988	 0.152144011
H	 -2.375356526	 0.008405422	 -0.182293017
C	 -0.664557967	 1.194090624	 0.379001986
H	 -1.142626333	 2.151557646	 0.228720506
C	 0.658895764	 1.134978544	 0.808859868
H	 1.214102717	 2.045910451	 0.995438309
N	 0.429737177	 0.000639326	 6.888285341
C	 1.300405194	 -0.004973465	 5.868872308
H	 2.348261768	 -0.003724940	 6.143175100
C	 0.927019458	 -0.012041226	 4.527044236
H	 1.674480121	 -0.016205245	 3.745944588
C	 -0.429029099	 -0.013455290	 4.214628770
H	 -0.758757778	 -0.018910767	 3.184347322
C	 -1.347132363	 -0.007740204	 5.259798384
H	 -2.411582399	 -0.008589594	 5.071062598
C	 -0.871528559	 -0.000822549	 6.568757234
H	 -1.563712222	 0.003760580	 7.401948439
