22
0  1  0  1  0  1  11  11 -2.93291 -2.68083 -3.37418 -3.62627 -3.41320 -3.53739  0.95197  0.95205  0.94966 -3.14048 -4.47877  7.15943 -1.19107 -4.63007
N	 -0.036942860	 -1.393595166	 0.000007605
C	 -0.020335119	 -0.691947672	 -1.142006605
H	 -0.039510098	 -1.272961904	 -2.055747872
C	 0.016775950	 0.699410821	 -1.194429280
H	 0.027764380	 1.205005273	 -2.149485644
C	 0.038102661	 1.412646479	 -0.000000000
H	 0.067532763	 2.493443543	 0.000062312
C	 0.020659765	 0.699270671	 1.194415617
H	 0.034700437	 1.204790963	 2.149470107
C	 -0.016911163	 -0.692003372	 1.142005909
H	 -0.033406512	 -1.273065049	 2.055766516
N	 -4.537854020	 -4.715301032	 0.047831619
C	 -3.204497174	 -4.576168372	 0.037889038
H	 -2.633867335	 -5.496815549	 0.043999788
C	 -2.550849858	 -3.346363284	 0.020740664
H	 -1.470965472	 -3.295093486	 0.013490697
C	 -3.318631667	 -2.185790520	 0.013319930
H	 -2.847945111	 -1.211877086	 0.000000267
C	 -4.704116301	 -2.310916425	 0.023400854
H	 -5.345717133	 -1.440860518	 0.018215562
C	 -5.261024742	 -3.587310417	 0.040473318
H	 -6.336721934	 -3.714414633	 0.048651332
