22
0  1  0  1  0  1  11  11 -3.11966 -2.93760 -3.47809 -3.66015 -3.51072 -3.59687 -0.11268 -0.11116 -0.11058 -3.32828 -3.19424  4.28021 -0.80608 -3.60817
N	 -0.036942860	 -1.393595166	 0.000007605
C	 -0.020335119	 -0.691947672	 -1.142006605
H	 -0.039510098	 -1.272961904	 -2.055747872
C	 0.016775950	 0.699410821	 -1.194429280
H	 0.027764380	 1.205005273	 -2.149485644
C	 0.038102661	 1.412646479	 -0.000000000
H	 0.067532763	 2.493443543	 0.000062312
C	 0.020659765	 0.699270671	 1.194415617
H	 0.034700437	 1.204790963	 2.149470107
C	 -0.016911163	 -0.692003372	 1.142005909
H	 -0.033406512	 -1.273065049	 2.055766516
N	 -4.688025438	 -4.790524202	 0.047831352
C	 -3.354668592	 -4.651391542	 0.037888771
H	 -2.784038753	 -5.572038719	 0.043999521
C	 -2.701021276	 -3.421586454	 0.020740397
H	 -1.621136890	 -3.370316656	 0.013490430
C	 -3.468803085	 -2.261013690	 0.013319663
H	 -2.998116529	 -1.287100256	 -0.000000000
C	 -4.854287719	 -2.386139595	 0.023400587
H	 -5.495888551	 -1.516083688	 0.018215295
C	 -5.411196160	 -3.662533587	 0.040473051
H	 -6.486893352	 -3.789637803	 0.048651065
