22
0  1  0  1  0  1  11  11 -3.12143 -2.78577 -3.96573 -4.30138 -4.02765 -4.18743  2.50002  2.49577  2.49214 -3.21623 -3.98930  8.13850 -1.07821 -6.28721
N	 -2.537257651	 -1.393595166	 -0.000007605
C	 -2.553865392	 -0.691947672	 1.142006605
H	 -2.534690414	 -1.272961904	 2.055747872
C	 -2.590976462	 0.699410821	 1.194429280
H	 -2.601964892	 1.205005273	 2.149485644
C	 -2.612303172	 1.412646479	 -0.000000000
H	 -2.641733275	 2.493443543	 -0.000062312
C	 -2.594860276	 0.699270671	 -1.194415617
H	 -2.608900949	 1.204790963	 -2.149470107
C	 -2.557289348	 -0.692003372	 -1.142005909
H	 -2.540793999	 -1.273065049	 -2.055766516
N	 2.739849480	 -2.178231526	 1.566184577
C	 1.674614346	 -2.724417531	 0.962651489
H	 1.648349263	 -3.807036294	 0.940431250
C	 0.643283448	 -1.986198741	 0.387013554
H	 -0.192455300	 -2.481739986	 -0.087128896
C	 0.712866688	 -0.597222340	 0.435756182
H	 -0.068524948	 0.010868157	 -0.000000267
C	 1.811201732	 -0.012842235	 1.058239767
H	 1.913064452	 1.061448699	 1.123037695
C	 2.790114106	 -0.839777637	 1.603701507
H	 3.656013747	 -0.412004521	 2.094185740
