22
0  1  0  1  0  1  11  11 -2.82104 -2.58971 -3.39193 -3.62326 -3.45376 -3.55066  1.09500  1.08952  1.09209 -2.94380 -2.17468  4.42574 -0.71054 -4.48432
N	 -2.537257651	 -1.393595166	 -0.000007605
C	 -2.553865392	 -0.691947672	 1.142006605
H	 -2.534690414	 -1.272961904	 2.055747872
C	 -2.590976462	 0.699410821	 1.194429280
H	 -2.601964892	 1.205005273	 2.149485644
C	 -2.612303172	 1.412646479	 -0.000000000
H	 -2.641733275	 2.493443543	 -0.000062312
C	 -2.594860276	 0.699270671	 -1.194415617
H	 -2.608900949	 1.204790963	 -2.149470107
C	 -2.557289348	 -0.692003372	 -1.142005909
H	 -2.540793999	 -1.273065049	 -2.055766516
N	 3.721325931	 -0.288207927	 -0.047831352
C	 2.934155090	 -1.373362498	 -0.037888771
H	 3.446144014	 -2.327866024	 -0.043999521
C	 1.542288984	 -1.324535135	 -0.020740397
H	 0.957945843	 -2.234107547	 -0.013490430
C	 0.921094391	 -0.079330202	 -0.013319663
H	 -0.157682662	 0.000000000	 0.000000000
C	 1.722198920	 1.057971735	 -0.023400587
H	 1.289508819	 2.048642309	 -0.018215295
C	 3.106042764	 0.902071597	 -0.040473051
H	 3.753966840	 1.770100584	 -0.048651065
