22
0  1  0  1  0  1  11  11 -2.49552 -2.26173 -2.99570 -3.22949 -3.04243 -3.15063  1.56602  1.56417  1.56405 -2.53736 -2.82154  5.57166 -0.78293 -4.50455
N	 -0.036942860	 -1.393595166	 0.000007605
C	 -0.020335119	 -0.691947672	 -1.142006605
H	 -0.039510098	 -1.272961904	 -2.055747872
C	 0.016775950	 0.699410821	 -1.194429280
H	 0.027764380	 1.205005273	 -2.149485644
C	 0.038102661	 1.412646479	 -0.000000000
H	 0.067532763	 2.493443543	 0.000062312
C	 0.020659765	 0.699270671	 1.194415617
H	 0.034700437	 1.204790963	 2.149470107
C	 -0.016911163	 -0.692003372	 1.142005909
H	 -0.033406512	 -1.273065049	 2.055766516
N	 -5.389672585	 -2.178231526	 -2.788929821
C	 -4.324437451	 -2.724417531	 -2.185396733
H	 -4.298172368	 -3.807036294	 -2.163176494
C	 -3.293106553	 -1.986198741	 -1.609758798
H	 -2.457367805	 -2.481739986	 -1.135616348
C	 -3.362689794	 -0.597222340	 -1.658501426
H	 -2.581298158	 0.010868157	 -1.222744977
C	 -4.461024838	 -0.012842235	 -2.280985011
H	 -4.562887556	 1.061448699	 -2.345782939
C	 -5.439937211	 -0.839777637	 -2.826446750
H	 -6.305836853	 -0.412004521	 -3.316930984
