22
0  1  0  1  0  1  11  11 -2.56617 -2.38884 -2.98041 -3.15774 -3.02006 -3.09932  0.67614  0.67520  0.67600 -2.63418 -2.04376  3.57446 -0.53783 -3.62705
N	 -0.036942860	 -1.393595166	 0.000007605
C	 -0.020335119	 -0.691947672	 -1.142006605
H	 -0.039510098	 -1.272961904	 -2.055747872
C	 0.016775950	 0.699410821	 -1.194429280
H	 0.027764380	 1.205005273	 -2.149485644
C	 0.038102661	 1.412646479	 -0.000000000
H	 0.067532763	 2.493443543	 0.000062312
C	 0.020659765	 0.699270671	 1.194415617
H	 0.034700437	 1.204790963	 2.149470107
C	 -0.016911163	 -0.692003372	 1.142005909
H	 -0.033406512	 -1.273065049	 2.055766516
N	 -5.525809953	 -2.189099683	 -2.853285100
C	 -4.460574819	 -2.735285688	 -2.249752012
H	 -4.434309736	 -3.817904451	 -2.227531773
C	 -3.429243921	 -1.997066898	 -1.674114077
H	 -2.593505173	 -2.492608143	 -1.199971627
C	 -3.498827162	 -0.608090497	 -1.722856705
H	 -2.717435526	 -0.000000000	 -1.287100256
C	 -4.597162206	 -0.023710392	 -2.345340290
H	 -4.699024924	 1.050580542	 -2.410138218
C	 -5.576074579	 -0.850645794	 -2.890802029
H	 -6.441974221	 -0.422872678	 -3.381286263
