22
0  1  0  1  0  1  11  11 29.26256 30.66502 27.01187 25.60941 26.92657 26.13713 45.53078 45.52238 45.45611 26.84015 -39.00793 107.00386 -21.95250 -19.20328
N	 -2.537257651	 -1.393595166	 -0.000007605
C	 -2.553865392	 -0.691947672	 1.142006605
H	 -2.534690414	 -1.272961904	 2.055747872
C	 -2.590976462	 0.699410821	 1.194429280
H	 -2.601964892	 1.205005273	 2.149485644
C	 -2.612303172	 1.412646479	 -0.000000000
H	 -2.641733275	 2.493443543	 -0.000062312
C	 -2.594860276	 0.699270671	 -1.194415617
H	 -2.608900949	 1.204790963	 -2.149470107
C	 -2.557289348	 -0.692003372	 -1.142005909
H	 -2.540793999	 -1.273065049	 -2.055766516
N	 1.747762765	 -3.438215004	 -0.047832952
C	 0.414405919	 -3.299082344	 -0.037890371
H	 -0.156223920	 -4.219729521	 -0.044001121
C	 -0.239241397	 -2.069277256	 -0.020741997
H	 -1.319125783	 -2.018007457	 -0.013492030
C	 0.528540411	 -0.908704491	 -0.013321263
H	 0.057853855	 0.065208943	 -0.000001600
C	 1.914025045	 -1.033830396	 -0.023402187
H	 2.555625878	 -0.163774489	 -0.018216895
C	 2.470933487	 -2.310224388	 -0.040474651
H	 3.546630679	 -2.437328604	 -0.048652665
