22
0  1  0  1  0  1  11  11 -3.05599 -2.90153 -3.57287 -3.72733 -3.60775 -3.67636  0.02333  0.02433  0.02555 -3.21816 -1.65874  2.37715 -0.41058 -3.52599
N	 -2.537257651	 -1.393595166	 -0.000007605
C	 -2.553865392	 -0.691947672	 1.142006605
H	 -2.534690414	 -1.272961904	 2.055747872
C	 -2.590976462	 0.699410821	 1.194429280
H	 -2.601964892	 1.205005273	 2.149485644
C	 -2.612303172	 1.412646479	 -0.000000000
H	 -2.641733275	 2.493443543	 -0.000062312
C	 -2.594860276	 0.699270671	 -1.194415617
H	 -2.608900949	 1.204790963	 -2.149470107
C	 -2.557289348	 -0.692003372	 -1.142005909
H	 -2.540793999	 -1.273065049	 -2.055766516
N	 3.100197138	 -2.210835997	 -1.649030643
C	 2.044904585	 -2.757022002	 -1.028276500
H	 2.012528752	 -3.839640765	 -1.016640390
C	 1.030722061	 -2.018803212	 -0.422936710
H	 0.202233280	 -2.514344457	 0.063763051
C	 1.107726035	 -0.629826811	 -0.458826250
H	 0.339654062	 -0.021736314	 0.000000533
C	 2.195980155	 -0.045446706	 -1.098770507
H	 2.303028167	 1.028844228	 -1.154587246
C	 3.157820065	 -0.872382108	 -1.673802621
H	 4.015541692	 -0.444608992	 -2.178451591
