22
0  1  0  1  0  1  11  11  1.19452  1.91687 -0.31931 -1.04166 -0.40829 -0.78057 11.63011 11.62358 11.60909  1.35657 -11.19323 27.05575 -3.06252 -11.44343
N	 -2.537257651	 -1.393595166	 -0.000007605
C	 -2.553865392	 -0.691947672	 1.142006605
H	 -2.534690414	 -1.272961904	 2.055747872
C	 -2.590976462	 0.699410821	 1.194429280
H	 -2.601964892	 1.205005273	 2.149485644
C	 -2.612303172	 1.412646479	 -0.000000000
H	 -2.641733275	 2.493443543	 -0.000062312
C	 -2.594860276	 0.699270671	 -1.194415617
H	 -2.608900949	 1.204790963	 -2.149470107
C	 -2.557289348	 -0.692003372	 -1.142005909
H	 -2.540793999	 -1.273065049	 -2.055766516
N	 2.304060844	 -2.145627054	 -1.649032243
C	 1.248768291	 -2.691813059	 -1.028278100
H	 1.216392458	 -3.774431822	 -1.016641990
C	 0.234585767	 -1.953594269	 -0.422938310
H	 -0.593903014	 -2.449135514	 0.063761451
C	 0.311589741	 -0.564617868	 -0.458827850
H	 -0.456482232	 0.043472629	 -0.000001067
C	 1.399843861	 0.019762237	 -1.098772107
H	 1.506891873	 1.094053171	 -1.154588846
C	 2.361683771	 -0.807173165	 -1.673804221
H	 3.219405398	 -0.379400049	 -2.178453191
