22
0  1  0  1  0  1  11  11 -2.25387 -2.15163 -2.54730 -2.64954 -2.57433 -2.61698 -0.17473 -0.17394 -0.17198 -2.34292 -1.15643  1.45159 -0.26340 -2.37468
N	 -0.036942860	 -1.393595166	 0.000007605
C	 -0.020335119	 -0.691947672	 -1.142006605
H	 -0.039510098	 -1.272961904	 -2.055747872
C	 0.016775950	 0.699410821	 -1.194429280
H	 0.027764380	 1.205005273	 -2.149485644
C	 0.038102661	 1.412646479	 -0.000000000
H	 0.067532763	 2.493443543	 0.000062312
C	 0.020659765	 0.699270671	 1.194415617
H	 0.034700437	 1.204790963	 2.149470107
C	 -0.016911163	 -0.692003372	 1.142005909
H	 -0.033406512	 -1.273065049	 2.055766516
N	 -5.798084689	 -2.210835997	 -2.981995659
C	 -4.732849555	 -2.757022002	 -2.378462571
H	 -4.706584472	 -3.839640765	 -2.356242332
C	 -3.701518657	 -2.018803212	 -1.802824636
H	 -2.865779909	 -2.514344457	 -1.328682186
C	 -3.771101898	 -0.629826811	 -1.851567264
H	 -2.989710262	 -0.021736314	 -1.415810815
C	 -4.869436942	 -0.045446706	 -2.474050849
H	 -4.971299660	 1.028844228	 -2.538848777
C	 -5.848349315	 -0.872382108	 -3.019512588
H	 -6.714248957	 -0.444608992	 -3.509996822
