22
0  1  0  1  0  1  11  11 -2.24500 -1.89378 -3.05676 -3.40799 -3.13146 -3.28956  3.39286  3.38840  3.39259 -2.34553 -3.82289  9.13238 -1.28313 -6.37189
N	 -2.537257651	 -1.393595166	 -0.000007605
C	 -2.553865392	 -0.691947672	 1.142006605
H	 -2.534690414	 -1.272961904	 2.055747872
C	 -2.590976462	 0.699410821	 1.194429280
H	 -2.601964892	 1.205005273	 2.149485644
C	 -2.612303172	 1.412646479	 -0.000000000
H	 -2.641733275	 2.493443543	 -0.000062312
C	 -2.594860276	 0.699270671	 -1.194415617
H	 -2.608900949	 1.204790963	 -2.149470107
C	 -2.557289348	 -0.692003372	 -1.142005909
H	 -2.540793999	 -1.273065049	 -2.055766516
N	 3.479142962	 -0.266471613	 -0.047831885
C	 2.691972121	 -1.351626184	 -0.037889304
H	 3.203961045	 -2.306129710	 -0.044000054
C	 1.300106015	 -1.302798821	 -0.020740930
H	 0.715762874	 -2.212371233	 -0.013490963
C	 0.678911422	 -0.057593888	 -0.013320196
H	 -0.399865631	 0.021736314	 -0.000000533
C	 1.480015951	 1.079708049	 -0.023401120
H	 1.047325850	 2.070378623	 -0.018215828
C	 2.863859795	 0.923807911	 -0.040473584
H	 3.511783871	 1.791836898	 -0.048651598
