22
0  1  0  1  0  1  11  11  0.71034  1.25315 -0.22697 -0.76977 -0.29960 -0.57331  8.74268  8.73812  8.73364  0.78680 -8.30722 20.38251 -2.51939 -8.76910
N	 -0.036942860	 -1.393595166	 0.000007605
C	 -0.020335119	 -0.691947672	 -1.142006605
H	 -0.039510098	 -1.272961904	 -2.055747872
C	 0.016775950	 0.699410821	 -1.194429280
H	 0.027764380	 1.205005273	 -2.149485644
C	 0.038102661	 1.412646479	 -0.000000000
H	 0.067532763	 2.493443543	 0.000062312
C	 0.020659765	 0.699270671	 1.194415617
H	 0.034700437	 1.204790963	 2.149470107
C	 -0.016911163	 -0.692003372	 1.142005909
H	 -0.033406512	 -1.273065049	 2.055766516
N	 -4.981260480	 -2.145627054	 -2.595863982
C	 -3.916025346	 -2.691813059	 -1.992330894
H	 -3.889760263	 -3.774431822	 -1.970110655
C	 -2.884694448	 -1.953594269	 -1.416692959
H	 -2.048955700	 -2.449135514	 -0.942550509
C	 -2.954277689	 -0.564617868	 -1.465435587
H	 -2.172886053	 0.043472629	 -1.029679138
C	 -4.052612733	 0.019762237	 -2.087919172
H	 -4.154475451	 1.094053171	 -2.152717100
C	 -5.031525106	 -0.807173165	 -2.633380911
H	 -5.897424748	 -0.379400049	 -3.123865145
