22
0  1  0  1  0  1  11  11 -2.10026 -1.79048 -2.71280 -3.02259 -2.76713 -2.91540  3.00685  3.00419  3.00281 -2.10271 -3.99410  8.65758 -1.14252 -5.62366
N	 -0.036942860	 -1.393595166	 0.000007605
C	 -0.020335119	 -0.691947672	 -1.142006605
H	 -0.039510098	 -1.272961904	 -2.055747872
C	 0.016775950	 0.699410821	 -1.194429280
H	 0.027764380	 1.205005273	 -2.149485644
C	 0.038102661	 1.412646479	 -0.000000000
H	 0.067532763	 2.493443543	 0.000062312
C	 0.020659765	 0.699270671	 1.194415617
H	 0.034700437	 1.204790963	 2.149470107
C	 -0.016911163	 -0.692003372	 1.142005909
H	 -0.033406512	 -1.273065049	 2.055766516
N	 -5.207918664	 -2.167363369	 2.807421939
C	 -4.152626111	 -2.713549374	 2.186667796
H	 -4.120250278	 -3.796168137	 2.175031686
C	 -3.138443587	 -1.975330584	 1.581328006
H	 -2.309954806	 -2.470871829	 1.094628245
C	 -3.215447562	 -0.586354183	 1.617217547
H	 -2.447375589	 0.021736314	 1.158390764
C	 -4.303701682	 -0.001974078	 2.257161804
H	 -4.410749692	 1.072316856	 2.312978542
C	 -5.265541591	 -0.828909480	 2.832193918
H	 -6.123263219	 -0.401136364	 3.336842888
