22
0  1  0  1  0  1  11  11 -2.79864 -2.61152 -3.28284 -3.46996 -3.33681 -3.41292  0.46708  0.46262  0.46468 -2.92581 -1.68190  3.05660 -0.53236 -3.76815
N	 -2.537257651	 -1.393595166	 -0.000007605
C	 -2.553865392	 -0.691947672	 1.142006605
H	 -2.534690414	 -1.272961904	 2.055747872
C	 -2.590976462	 0.699410821	 1.194429280
H	 -2.601964892	 1.205005273	 2.149485644
C	 -2.612303172	 1.412646479	 -0.000000000
H	 -2.641733275	 2.493443543	 -0.000062312
C	 -2.594860276	 0.699270671	 -1.194415617
H	 -2.608900949	 1.204790963	 -2.149470107
C	 -2.557289348	 -0.692003372	 -1.142005909
H	 -2.540793999	 -1.273065049	 -2.055766516
N	 3.842417415	 -0.299076084	 -0.047831085
C	 3.055246574	 -1.384230655	 -0.037888504
H	 3.567235498	 -2.338734181	 -0.043999254
C	 1.663380468	 -1.335403292	 -0.020740130
H	 1.079037327	 -2.244975704	 -0.013490163
C	 1.042185875	 -0.090198359	 -0.013319396
H	 -0.036591178	 -0.010868157	 0.000000267
C	 1.843290404	 1.047103578	 -0.023400320
H	 1.410600303	 2.037774152	 -0.018215028
C	 3.227134248	 0.891203440	 -0.040472784
H	 3.875058324	 1.759232427	 -0.048650798
