23
0  1  0  1  0  1  12  11 -2.29088 -2.16136 -2.60887 -2.73839 -2.64516 -2.69884  0.32458  0.32483  0.32533 -2.35632 -1.22826  2.12908 -0.33881 -2.91834
C	 0.055015310	 1.195242624	 0.715355511
H	 0.100302405	 2.121961012	 1.271207803
C	 -0.007930440	 -0.020798650	 1.394084625
H	 -0.015233282	 -0.036744495	 2.475282256
C	 -0.061062864	 -1.216276421	 0.678655418
H	 -0.107657330	 -2.159659292	 1.205334000
C	 -0.054097848	 -1.195329974	 -0.715422629
H	 -0.095304259	 -2.122485881	 -1.270605935
C	 0.005917739	 0.021039341	 -1.394051208
H	 0.009146133	 0.037574952	 -2.475265341
C	 0.061875761	 1.216143111	 -0.678621658
H	 0.112110743	 2.159115012	 -1.205953486
N	 -5.193532519	 4.474105944	 -0.086951907
C	 -3.857037692	 4.559801152	 -0.032829040
H	 -3.448085805	 5.562719618	 -0.015096888
C	 -3.010642202	 3.454584719	 0.000000003
H	 -1.939086766	 3.589231925	 0.043315843
C	 -3.569161763	 2.180732054	 -0.024089068
H	 -2.941552891	 1.300703747	 0.000000003
C	 -4.955133985	 2.075266444	 -0.080068081
H	 -5.441629209	 1.110109554	 -0.100818173
C	 -5.717033674	 3.240735673	 -0.109498584
H	 -6.797969010	 3.186372033	 -0.153189370
