23
0  1  0  1  0  1  12  11 -2.99754 -2.83038 -3.44197 -3.60913 -3.49430 -3.56000 -0.11478 -0.11987 -0.11824 -3.13236 -1.62049  2.37144 -0.50165 -3.38166
C	 -2.532544523	 1.195242624	 -0.715355511
H	 -2.577831618	 2.121961012	 -1.271207803
C	 -2.469598773	 -0.020798650	 -1.394084625
H	 -2.462295931	 -0.036744495	 -2.475282256
C	 -2.416466349	 -1.216276421	 -0.678655418
H	 -2.369871883	 -2.159659292	 -1.205334000
C	 -2.423431365	 -1.195329974	 0.715422629
H	 -2.382224954	 -2.122485881	 1.270605935
C	 -2.483446952	 0.021039341	 1.394051208
H	 -2.486675346	 0.037574952	 2.475265341
C	 -2.539404974	 1.216143111	 0.678621658
H	 -2.589639956	 2.159115012	 1.205953486
N	 4.058839248	 -0.363568646	 0.086951905
C	 3.464806061	 0.836717429	 0.032829038
H	 4.128882987	 1.692339386	 0.015096886
C	 2.084462809	 1.017109210	 -0.000000005
H	 1.665292992	 2.012427042	 -0.043315845
C	 1.260533821	 -0.103509251	 0.024089066
H	 0.184602515	 0.000001822	 -0.000000005
C	 1.862184034	 -1.356529210	 0.080068079
H	 1.269581261	 -2.260424877	 0.100818171
C	 3.252459838	 -1.433619081	 0.109498582
H	 3.745847213	 -2.396918362	 0.153189368
