23
0  1  0  1  0  1  12  11  5.79808  6.45412  4.59561  3.93957  4.50764  4.18208 14.97782 14.97498 14.98175  5.40226 -11.53791 31.70893 -4.62757 -10.14119
C	 0.055015310	 1.195242624	 0.715355511
H	 0.100302405	 2.121961012	 1.271207803
C	 -0.007930440	 -0.020798650	 1.394084625
H	 -0.015233282	 -0.036744495	 2.475282256
C	 -0.061062864	 -1.216276421	 0.678655418
H	 -0.107657330	 -2.159659292	 1.205334000
C	 -0.054097848	 -1.195329974	 -0.715422629
H	 -0.095304259	 -2.122485881	 -1.270605935
C	 0.005917739	 0.021039341	 -1.394051208
H	 0.009146133	 0.037574952	 -2.475265341
C	 0.061875761	 1.216143111	 -0.678621658
H	 0.112110743	 2.159115012	 -1.205953486
N	 -5.775665821	 -1.230711160	 -0.086951926
C	 -5.181632634	 -0.030425084	 -0.032829059
H	 -5.845709560	 0.825196873	 -0.015096907
C	 -3.801289382	 0.149966696	 -0.000000016
H	 -3.382119565	 1.145284528	 0.043315824
C	 -2.977360394	 -0.970651765	 -0.024089087
H	 -1.901429088	 -0.867140691	 -0.000000016
C	 -3.579010607	 -2.223671723	 -0.080068100
H	 -2.986407834	 -3.127567391	 -0.100818192
C	 -4.969286411	 -2.300761594	 -0.109498603
H	 -5.462673786	 -3.264060875	 -0.153189389
