23
0  1  0  1  0  1  12  11 -2.06191 -1.85128 -2.59543 -2.80606 -2.64561 -2.73830  1.85646  1.85387  1.85403 -2.08719 -2.41394  5.33321 -0.74298 -4.26348
C	 -2.532544523	 1.195242624	 -0.715355511
H	 -2.577831618	 2.121961012	 -1.271207803
C	 -2.469598773	 -0.020798650	 -1.394084625
H	 -2.462295931	 -0.036744495	 -2.475282256
C	 -2.416466349	 -1.216276421	 -0.678655418
H	 -2.369871883	 -2.159659292	 -1.205334000
C	 -2.423431365	 -1.195329974	 0.715422629
H	 -2.382224954	 -2.122485881	 1.270605935
C	 -2.483446952	 0.021039341	 1.394051208
H	 -2.486675346	 0.037574952	 2.475265341
C	 -2.539404974	 1.216143111	 0.678621658
H	 -2.589639956	 2.159115012	 1.205953486
N	 2.996546248	 3.173401286	 0.086951913
C	 1.660051421	 3.259096493	 0.032829046
H	 1.251099534	 4.262014959	 0.015096894
C	 0.813655931	 2.153880061	 0.000000003
H	 -0.257899505	 2.288527267	 -0.043315837
C	 1.372175492	 0.880027396	 0.024089074
H	 0.744566620	 -0.000000911	 0.000000003
C	 2.758147714	 0.774561785	 0.080068087
H	 3.244642938	 -0.190595104	 0.100818179
C	 3.520047403	 1.940031014	 0.109498590
H	 4.600982739	 1.885667374	 0.153189376
