23
0  1  0  1  0  1  12  11 -2.10875 -2.01395 -2.39720 -2.49200 -2.42444 -2.46270 -0.18911 -0.18789 -0.18599 -2.19613 -1.09373  1.39715 -0.27636 -2.22319
C	 0.055015310	 1.195242624	 0.715355511
H	 0.100302405	 2.121961012	 1.271207803
C	 -0.007930440	 -0.020798650	 1.394084625
H	 -0.015233282	 -0.036744495	 2.475282256
C	 -0.061062864	 -1.216276421	 0.678655418
H	 -0.107657330	 -2.159659292	 1.205334000
C	 -0.054097848	 -1.195329974	 -0.715422629
H	 -0.095304259	 -2.122485881	 -1.270605935
C	 0.005917739	 0.021039341	 -1.394051208
H	 0.009146133	 0.037574952	 -2.475265341
C	 0.061875761	 1.216143111	 -0.678621658
H	 0.112110743	 2.159115012	 -1.205953486
N	 -5.997948004	 1.622258927	 -3.206429957
C	 -5.059745431	 2.364720567	 -2.602262745
H	 -5.196174026	 3.437749380	 -2.660554506
C	 -3.962790581	 1.830772805	 -1.931027853
H	 -3.239085875	 2.483158424	 -1.463179923
C	 -3.818041332	 0.448324256	 -1.875272499
H	 -2.978315779	 0.000001822	 -1.362641061
C	 -4.783863043	 -0.335997753	 -2.497528920
H	 -4.720434223	 -1.415095750	 -2.484868416
C	 -5.845235538	 0.292378362	 -3.144296034
H	 -6.610551501	 -0.295169599	 -3.636601185
