23
0  1  0  1  0  1  12  11 -3.22276 -2.96015 -3.94689 -4.20950 -4.01112 -4.12632  1.39975  1.39386  1.39266 -3.33560 -2.67397  5.32486 -0.80111 -5.18538
C	 -2.532544523	 1.195242624	 -0.715355511
H	 -2.577831618	 2.121961012	 -1.271207803
C	 -2.469598773	 -0.020798650	 -1.394084625
H	 -2.462295931	 -0.036744495	 -2.475282256
C	 -2.416466349	 -1.216276421	 -0.678655418
H	 -2.369871883	 -2.159659292	 -1.205334000
C	 -2.423431365	 -1.195329974	 0.715422629
H	 -2.382224954	 -2.122485881	 1.270605935
C	 -2.483446952	 0.021039341	 1.394051208
H	 -2.486675346	 0.037574952	 2.475265341
C	 -2.539404974	 1.216143111	 0.678621658
H	 -2.589639956	 2.159115012	 1.205953486
N	 3.176101769	 1.622257105	 -1.693183770
C	 2.183776329	 2.364718745	 -1.182760113
H	 2.302472772	 3.437747558	 -1.271764862
C	 1.053992436	 1.830770983	 -0.568386792
H	 0.286971890	 2.483156602	 -0.175564097
C	 0.933332258	 0.448322434	 -0.470907943
H	 0.069517634	 0.000000000	 0.000000000
C	 1.955132982	 -0.335999575	 -0.996205869
H	 1.912454254	 -1.415097572	 -0.947605151
C	 3.045935980	 0.292376540	 -1.591997856
H	 3.854942729	 -0.295171421	 -2.008628346
