23
0  1  0  1  0  1  12  11 -2.49411 -2.08147 -3.54681 -3.95945 -3.62767 -3.82034  4.33256  4.32565  4.32361 -2.52334 -4.91620 11.39627 -1.47834 -7.52507
C	 -2.532544523	 1.195242624	 -0.715355511
H	 -2.577831618	 2.121961012	 -1.271207803
C	 -2.469598773	 -0.020798650	 -1.394084625
H	 -2.462295931	 -0.036744495	 -2.475282256
C	 -2.416466349	 -1.216276421	 -0.678655418
H	 -2.369871883	 -2.159659292	 -1.205334000
C	 -2.423431365	 -1.195329974	 0.715422629
H	 -2.382224954	 -2.122485881	 1.270605935
C	 -2.483446952	 0.021039341	 1.394051208
H	 -2.486675346	 0.037574952	 2.475265341
C	 -2.539404974	 1.216143111	 0.678621658
H	 -2.589639956	 2.159115012	 1.205953486
N	 2.835343294	 1.622255283	 1.843788900
C	 1.897140721	 2.364716923	 1.239621689
H	 2.033569316	 3.437745736	 1.297913449
C	 0.800185871	 1.830769161	 0.568386797
H	 0.076481165	 2.483154780	 0.100538866
C	 0.655436622	 0.448320612	 0.512631442
H	 -0.184288931	 -0.000001822	 0.000000005
C	 1.621258333	 -0.336001397	 1.134887864
H	 1.557829513	 -1.415099394	 1.122227360
C	 2.682630828	 0.292374718	 1.781654977
H	 3.447946791	 -0.295173243	 2.273960128
