23
0  1  0  1  0  1  12  11 -1.81516 -1.51035 -2.36834 -2.67315 -2.43026 -2.57189  3.38435  3.38005  3.37719 -1.75432 -3.39234  8.25340 -0.98151 -5.63387
C	 0.055015310	 1.195242624	 0.715355511
H	 0.100302405	 2.121961012	 1.271207803
C	 -0.007930440	 -0.020798650	 1.394084625
H	 -0.015233282	 -0.036744495	 2.475282256
C	 -0.061062864	 -1.216276421	 0.678655418
H	 -0.107657330	 -2.159659292	 1.205334000
C	 -0.054097848	 -1.195329974	 -0.715422629
H	 -0.095304259	 -2.122485881	 -1.270605935
C	 0.005917739	 0.021039341	 -1.394051208
H	 0.009146133	 0.037574952	 -2.475265341
C	 0.061875761	 1.216143111	 -0.678621658
H	 0.112110743	 2.159115012	 -1.205953486
N	 -4.773273986	 4.288288520	 -0.086951915
C	 -3.436779159	 4.373983728	 -0.032829048
H	 -3.027827272	 5.376902194	 -0.015096896
C	 -2.590383669	 3.268767295	 -0.000000005
H	 -1.518828233	 3.403414501	 0.043315835
C	 -3.148903230	 1.994914630	 -0.024089076
H	 -2.521294358	 1.114886323	 -0.000000005
C	 -4.534875452	 1.889449020	 -0.080068089
H	 -5.021370676	 0.924292130	 -0.100818181
C	 -5.296775141	 3.054918249	 -0.109498592
H	 -6.377710477	 3.000554609	 -0.153189378
