23
0  1  0  1  0  1  12  11 -2.27697 -2.06550 -2.75554 -2.96700 -2.80587 -2.89896  1.40907  1.40666  1.40683 -2.32446 -2.48182  5.03768 -0.78042 -4.09990
C	 0.055015310	 1.195242624	 0.715355511
H	 0.100302405	 2.121961012	 1.271207803
C	 -0.007930440	 -0.020798650	 1.394084625
H	 -0.015233282	 -0.036744495	 2.475282256
C	 -0.061062864	 -1.216276421	 0.678655418
H	 -0.107657330	 -2.159659292	 1.205334000
C	 -0.054097848	 -1.195329974	 -0.715422629
H	 -0.095304259	 -2.122485881	 -1.270605935
C	 0.005917739	 0.021039341	 -1.394051208
H	 0.009146133	 0.037574952	 -2.475265341
C	 0.061875761	 1.216143111	 -0.678621658
H	 0.112110743	 2.159115012	 -1.205953486
N	 -5.682283251	 1.622256194	 2.870010143
C	 -4.689957811	 2.364717834	 2.359586487
H	 -4.808654254	 3.437746647	 2.448591235
C	 -3.560173918	 1.830770072	 1.745213165
H	 -2.793153372	 2.483155691	 1.352390470
C	 -3.439513740	 0.448321523	 1.647734316
H	 -2.575699116	 -0.000000911	 1.176826373
C	 -4.461314464	 -0.336000486	 2.173032243
H	 -4.418635736	 -1.415098483	 2.124431525
C	 -5.552117462	 0.292375629	 2.768824229
H	 -6.361124211	 -0.295172332	 3.185454719
