23
0  1  0  1  0  1  12  11 -3.12372 -2.79772 -3.89281 -4.21880 -3.96983 -4.11358  2.25911  2.25081  2.25126 -3.21044 -3.45182  7.39915 -1.11222 -6.04556
C	 0.845077202	 1.057918690	 0.699454900
H	 1.506406005	 1.903221780	 0.833382351
C	 1.375509314	 -0.217455339	 0.511160934
H	 2.447183668	 -0.361472579	 0.502852324
C	 0.524068101	 -1.307044317	 0.333192325
H	 0.935727260	 -2.296026407	 0.184923048
C	 -0.857715735	 -1.121463408	 0.346384085
H	 -1.518381190	 -1.966458055	 0.208363251
C	 -1.388045696	 0.153634383	 0.537613494
H	 -2.459717525	 0.297415869	 0.550032292
C	 -0.536613149	 1.243422206	 0.712738819
H	 -0.948924265	 2.232806277	 0.857366346
N	 0.025069267	 0.383496198	 6.619697296
C	 0.179753087	 1.321457803	 5.674820416
H	 0.321523914	 2.333983808	 6.032722142
C	 0.165543820	 1.054168038	 4.308320978
H	 0.295783878	 1.855193836	 3.594435566
C	 -0.018794491	 -0.257461647	 3.883030547
H	 -0.035360944	 -0.500580314	 2.829682614
C	 -0.180643417	 -1.242495980	 4.851889636
H	 -0.327186438	 -2.277706948	 4.577118122
C	 -0.151440944	 -0.875162879	 6.194979142
H	 -0.275037078	 -1.622676848	 6.969080139
