23
0  1  0  1  0  1  12  11 -2.02652 -1.84360 -2.44794 -2.63086 -2.49174 -2.57183  1.12405  1.12119  1.12199 -2.10175 -2.21485  4.47125 -0.80086 -3.55729
C	 0.055015310	 1.195242624	 0.715355511
H	 0.100302405	 2.121961012	 1.271207803
C	 -0.007930440	 -0.020798650	 1.394084625
H	 -0.015233282	 -0.036744495	 2.475282256
C	 -0.061062864	 -1.216276421	 0.678655418
H	 -0.107657330	 -2.159659292	 1.205334000
C	 -0.054097848	 -1.195329974	 -0.715422629
H	 -0.095304259	 -2.122485881	 -1.270605935
C	 0.005917739	 0.021039341	 -1.394051208
H	 0.009146133	 0.037574952	 -2.475265341
C	 0.061875761	 1.216143111	 -0.678621658
H	 0.112110743	 2.159115012	 -1.205953486
N	 -6.454839367	 -1.540397756	 -0.086951913
C	 -5.860806180	 -0.340111680	 -0.032829046
H	 -6.524883106	 0.515510277	 -0.015096894
C	 -4.480462928	 -0.159719900	 -0.000000003
H	 -4.061293111	 0.835597932	 0.043315837
C	 -3.656533940	 -1.280338361	 -0.024089074
H	 -2.580602634	 -1.176827287	 -0.000000003
C	 -4.258184153	 -2.533358319	 -0.080068087
H	 -3.665581380	 -3.437253987	 -0.100818179
C	 -5.648459957	 -2.610448190	 -0.109498590
H	 -6.141847332	 -3.573747471	 -0.153189376
