23
0  1  0  1  0  1  12  11 -2.27385 -2.14929 -2.61375 -2.73831 -2.64786 -2.69959  0.10940  0.10952  0.11086 -2.35651 -1.40520  2.15415 -0.38465 -2.72082
C	 0.055015310	 1.195242624	 0.715355511
H	 0.100302405	 2.121961012	 1.271207803
C	 -0.007930440	 -0.020798650	 1.394084625
H	 -0.015233282	 -0.036744495	 2.475282256
C	 -0.061062864	 -1.216276421	 0.678655418
H	 -0.107657330	 -2.159659292	 1.205334000
C	 -0.054097848	 -1.195329974	 -0.715422629
H	 -0.095304259	 -2.122485881	 -1.270605935
C	 0.005917739	 0.021039341	 -1.394051208
H	 0.009146133	 0.037574952	 -2.475265341
C	 0.061875761	 1.216143111	 -0.678621658
H	 0.112110743	 2.159115012	 -1.205953486
N	 -5.862558339	 1.622258016	 -3.144491730
C	 -4.924355766	 2.364719656	 -2.540324518
H	 -5.060784361	 3.437748469	 -2.598616279
C	 -3.827400916	 1.830771894	 -1.869089626
H	 -3.103696210	 2.483157513	 -1.401241696
C	 -3.682651667	 0.448323345	 -1.813334272
H	 -2.842926114	 0.000000911	 -1.300702834
C	 -4.648473378	 -0.335998664	 -2.435590693
H	 -4.585044558	 -1.415096661	 -2.422930189
C	 -5.709845873	 0.292377451	 -3.082357807
H	 -6.475161836	 -0.295170510	 -3.574662958
