23
0  1  0  1  0  1  12  11 -0.08325  0.48147 -1.33113 -1.89586 -1.42343 -1.69242  8.42120  8.41917  8.42896 -0.17343 -7.77787 19.72377 -2.61753 -9.50180
C	 -2.532544523	 1.195242624	 -0.715355511
H	 -2.577831618	 2.121961012	 -1.271207803
C	 -2.469598773	 -0.020798650	 -1.394084625
H	 -2.462295931	 -0.036744495	 -2.475282256
C	 -2.416466349	 -1.216276421	 -0.678655418
H	 -2.369871883	 -2.159659292	 -1.205334000
C	 -2.423431365	 -1.195329974	 0.715422629
H	 -2.382224954	 -2.122485881	 1.270605935
C	 -2.483446952	 0.021039341	 1.394051208
H	 -2.486675346	 0.037574952	 2.475265341
C	 -2.539404974	 1.216143111	 0.678621658
H	 -2.589639956	 2.159115012	 1.205953486
N	 3.332733275	 -0.363574112	 0.086951921
C	 2.738700088	 0.836711963	 0.032829054
H	 3.402777014	 1.692333920	 0.015096902
C	 1.358356836	 1.017103744	 0.000000011
H	 0.939187019	 2.012421576	 -0.043315829
C	 0.534427848	 -0.103514717	 0.024089082
H	 -0.541503458	 -0.000003644	 0.000000011
C	 1.136078061	 -1.356534676	 0.080068095
H	 0.543475288	 -2.260430343	 0.100818187
C	 2.526353865	 -1.433624547	 0.109498598
H	 3.019741240	 -2.396923828	 0.153189384
