23
0  1  0  1  0  1  12  11  8.29777  9.32768  6.14232  5.11240  6.02543  5.49686 22.83211 22.83107 22.82936  8.35676 -18.05913 47.13333 -5.03721 -15.68024
C	 -2.532544523	 1.195242624	 -0.715355511
H	 -2.577831618	 2.121961012	 -1.271207803
C	 -2.469598773	 -0.020798650	 -1.394084625
H	 -2.462295931	 -0.036744495	 -2.475282256
C	 -2.416466349	 -1.216276421	 -0.678655418
H	 -2.369871883	 -2.159659292	 -1.205334000
C	 -2.423431365	 -1.195329974	 0.715422629
H	 -2.382224954	 -2.122485881	 1.270605935
C	 -2.483446952	 0.021039341	 1.394051208
H	 -2.486675346	 0.037574952	 2.475265341
C	 -2.539404974	 1.216143111	 0.678621658
H	 -2.589639956	 2.159115012	 1.205953486
N	 2.325677267	 1.622251638	 1.843788911
C	 1.387474694	 2.364713278	 1.239621700
H	 1.523903289	 3.437742091	 1.297913460
C	 0.290519844	 1.830765516	 0.568386808
H	 -0.433184862	 2.483151135	 0.100538877
C	 0.145770595	 0.448316967	 0.512631453
H	 -0.693954958	 -0.000005467	 0.000000016
C	 1.111592306	 -0.336005042	 1.134887875
H	 1.048163486	 -1.415103039	 1.122227371
C	 2.172964801	 0.292371073	 1.781654988
H	 2.938280764	 -0.295176888	 2.273960139
