23
0  1  0  1  0  1  12  11 -2.62649 -2.22456 -3.54291 -3.94483 -3.62714 -3.81028  3.84557  3.83742  3.83867 -2.67414 -4.58421 10.60831 -1.48570 -7.21254
C	 0.845077202	 1.057918690	 0.699454900
H	 1.506406005	 1.903221780	 0.833382351
C	 1.375509314	 -0.217455339	 0.511160934
H	 2.447183668	 -0.361472579	 0.502852324
C	 0.524068101	 -1.307044317	 0.333192325
H	 0.935727260	 -2.296026407	 0.184923048
C	 -0.857715735	 -1.121463408	 0.346384085
H	 -1.518381190	 -1.966458055	 0.208363251
C	 -1.388045696	 0.153634383	 0.537613494
H	 -2.459717525	 0.297415869	 0.550032292
C	 -0.536613149	 1.243422206	 0.712738819
H	 -0.948924265	 2.232806277	 0.857366346
N	 0.026599553	 0.408169281	 6.498299369
C	 0.181283373	 1.346130886	 5.553422489
H	 0.323054200	 2.358656891	 5.911324215
C	 0.167074106	 1.078841121	 4.186923051
H	 0.297314164	 1.879866919	 3.473037639
C	 -0.017264205	 -0.232788564	 3.761632620
H	 -0.033830658	 -0.475907231	 2.708284687
C	 -0.179113131	 -1.217822897	 4.730491709
H	 -0.325656152	 -2.253033865	 4.455720195
C	 -0.149910658	 -0.850489796	 6.073581215
H	 -0.273506792	 -1.598003765	 6.847682212
