23
0  1  0  1  0  1  12  11 -2.27143 -2.04221 -2.72587 -2.95509 -2.77849 -2.88127  1.85783  1.85501  1.85340 -2.27364 -2.35919  5.27809 -0.68149 -4.51106
C	 0.055015310	 1.195242624	 0.715355511
H	 0.100302405	 2.121961012	 1.271207803
C	 -0.007930440	 -0.020798650	 1.394084625
H	 -0.015233282	 -0.036744495	 2.475282256
C	 -0.061062864	 -1.216276421	 0.678655418
H	 -0.107657330	 -2.159659292	 1.205334000
C	 -0.054097848	 -1.195329974	 -0.715422629
H	 -0.095304259	 -2.122485881	 -1.270605935
C	 0.005917739	 0.021039341	 -1.394051208
H	 0.009146133	 0.037574952	 -2.475265341
C	 0.061875761	 1.216143111	 -0.678621658
H	 0.112110743	 2.159115012	 -1.205953486
N	 -4.913360163	 4.350227662	 -0.086951913
C	 -3.576865336	 4.435922870	 -0.032829046
H	 -3.167913449	 5.438841336	 -0.015096894
C	 -2.730469846	 3.330706437	 -0.000000003
H	 -1.658914410	 3.465353643	 0.043315837
C	 -3.288989407	 2.056853772	 -0.024089074
H	 -2.661380535	 1.176825465	 -0.000000003
C	 -4.674961629	 1.951388162	 -0.080068087
H	 -5.161456853	 0.986231272	 -0.100818179
C	 -5.436861318	 3.116857391	 -0.109498590
H	 -6.517796654	 3.062493751	 -0.153189376
