23
0  1  0  1  0  1  12  11  0.41630  1.05808 -1.03903 -1.68080 -1.13626 -1.45179 10.26793 10.26275 10.26105  0.51677 -9.12064 23.04556 -2.68554 -10.72262
C	 -2.532544523	 1.195242624	 -0.715355511
H	 -2.577831618	 2.121961012	 -1.271207803
C	 -2.469598773	 -0.020798650	 -1.394084625
H	 -2.462295931	 -0.036744495	 -2.475282256
C	 -2.416466349	 -1.216276421	 -0.678655418
H	 -2.369871883	 -2.159659292	 -1.205334000
C	 -2.423431365	 -1.195329974	 0.715422629
H	 -2.382224954	 -2.122485881	 1.270605935
C	 -2.483446952	 0.021039341	 1.394051208
H	 -2.486675346	 0.037574952	 2.475265341
C	 -2.539404974	 1.216143111	 0.678621658
H	 -2.589639956	 2.159115012	 1.205953486
N	 2.666641032	 1.622253461	 -1.693183759
C	 1.674315592	 2.364715101	 -1.182760102
H	 1.793012035	 3.437743914	 -1.271764851
C	 0.544531699	 1.830767339	 -0.568386781
H	 -0.222488847	 2.483152958	 -0.175564086
C	 0.423871521	 0.448318790	 -0.470907932
H	 -0.439943103	 -0.000003644	 0.000000011
C	 1.445672245	 -0.336003219	 -0.996205858
H	 1.402993517	 -1.415101216	 -0.947605140
C	 2.536475243	 0.292372896	 -1.591997845
H	 3.345481992	 -0.295175065	 -2.008628335
