23
0  1  0  1  0  1  12  11 -1.72200 -1.48572 -2.23544 -2.47173 -2.28671 -2.39308  2.18377  2.18047  2.18188 -1.79077 -3.01229  6.73270 -1.14036 -4.37082
C	 0.055015310	 1.195242624	 0.715355511
H	 0.100302405	 2.121961012	 1.271207803
C	 -0.007930440	 -0.020798650	 1.394084625
H	 -0.015233282	 -0.036744495	 2.475282256
C	 -0.061062864	 -1.216276421	 0.678655418
H	 -0.107657330	 -2.159659292	 1.205334000
C	 -0.054097848	 -1.195329974	 -0.715422629
H	 -0.095304259	 -2.122485881	 -1.270605935
C	 0.005917739	 0.021039341	 -1.394051208
H	 0.009146133	 0.037574952	 -2.475265341
C	 0.061875761	 1.216143111	 -0.678621658
H	 0.112110743	 2.159115012	 -1.205953486
N	 -6.319004658	 -1.478460437	 -0.086951915
C	 -5.724971471	 -0.278174361	 -0.032829048
H	 -6.389048397	 0.577447596	 -0.015096896
C	 -4.344628219	 -0.097782581	 -0.000000005
H	 -3.925458402	 0.897535251	 0.043315835
C	 -3.520699231	 -1.218401042	 -0.024089076
H	 -2.444767925	 -1.114889968	 -0.000000005
C	 -4.122349444	 -2.471421000	 -0.080068089
H	 -3.529746671	 -3.375316668	 -0.100818181
C	 -5.512625248	 -2.548510871	 -0.109498592
H	 -6.006012623	 -3.511810152	 -0.153189378
