23
0  1  0  1  0  1  12  11 -3.11797 -2.94694 -3.59280 -3.76384 -3.64319 -3.71282 -0.01701 -0.01991 -0.01964 -3.25418 -1.63143  2.43900 -0.48122 -3.58053
C	 0.845077202	 1.057918690	 0.699454900
H	 1.506406005	 1.903221780	 0.833382351
C	 1.375509314	 -0.217455339	 0.511160934
H	 2.447183668	 -0.361472579	 0.502852324
C	 0.524068101	 -1.307044317	 0.333192325
H	 0.935727260	 -2.296026407	 0.184923048
C	 -0.857715735	 -1.121463408	 0.346384085
H	 -1.518381190	 -1.966458055	 0.208363251
C	 -1.388045696	 0.153634383	 0.537613494
H	 -2.459717525	 0.297415869	 0.550032292
C	 -0.536613149	 1.243422206	 0.712738819
H	 -0.948924265	 2.232806277	 0.857366346
N	 0.020478407	 0.309476949	 6.983891075
C	 0.175162227	 1.247438554	 6.039014195
H	 0.316933054	 2.259964559	 6.396915921
C	 0.160952960	 0.980148789	 4.672514757
H	 0.291193018	 1.781174587	 3.958629345
C	 -0.023385351	 -0.331480896	 4.247224326
H	 -0.039951804	 -0.574599563	 3.193876393
C	 -0.185234277	 -1.316515229	 5.216083415
H	 -0.331777298	 -2.351726197	 4.941311901
C	 -0.156031804	 -0.949182128	 6.559172921
H	 -0.279627938	 -1.696696097	 7.333273918
