23
0  1  0  1  0  1  12  11  7.28526  8.07085  5.90147  5.11588  5.80349  5.40585 18.37110 18.36645 18.36619  7.21487 -14.20675 38.10799 -4.71320 -11.97317
C	 0.055015310	 1.195242624	 0.715355511
H	 0.100302405	 2.121961012	 1.271207803
C	 -0.007930440	 -0.020798650	 1.394084625
H	 -0.015233282	 -0.036744495	 2.475282256
C	 -0.061062864	 -1.216276421	 0.678655418
H	 -0.107657330	 -2.159659292	 1.205334000
C	 -0.054097848	 -1.195329974	 -0.715422629
H	 -0.095304259	 -2.122485881	 -1.270605935
C	 0.005917739	 0.021039341	 -1.394051208
H	 0.009146133	 0.037574952	 -2.475265341
C	 0.061875761	 1.216143111	 -0.678621658
H	 0.112110743	 2.159115012	 -1.205953486
N	 -5.004400105	 1.622251638	 2.560318978
C	 -4.012074665	 2.364713278	 2.049895322
H	 -4.130771108	 3.437742091	 2.138900070
C	 -2.882290772	 1.830765516	 1.435522000
H	 -2.115270226	 2.483151135	 1.042699305
C	 -2.761630594	 0.448316967	 1.338043151
H	 -1.897815970	 -0.000005467	 0.867135208
C	 -3.783431318	 -0.336005042	 1.863341078
H	 -3.740752590	 -1.415103039	 1.814740360
C	 -4.874234316	 0.292371073	 2.459133064
H	 -5.683241065	 -0.295176888	 2.875763554
