23
0  1  0  1  0  1  12  11  1.29320  1.83327  0.44357 -0.09650  0.35945  0.09334  9.55290  9.54625  9.54029  1.53620 -7.36813 19.82312 -2.06372 -8.85507
C	 0.055015310	 1.195242624	 0.715355511
H	 0.100302405	 2.121961012	 1.271207803
C	 -0.007930440	 -0.020798650	 1.394084625
H	 -0.015233282	 -0.036744495	 2.475282256
C	 -0.061062864	 -1.216276421	 0.678655418
H	 -0.107657330	 -2.159659292	 1.205334000
C	 -0.054097848	 -1.195329974	 -0.715422629
H	 -0.095304259	 -2.122485881	 -1.270605935
C	 0.005917739	 0.021039341	 -1.394051208
H	 0.009146133	 0.037574952	 -2.475265341
C	 0.061875761	 1.216143111	 -0.678621658
H	 0.112110743	 2.159115012	 -1.205953486
N	 -4.493101631	 4.164410237	 -0.086951921
C	 -3.156606804	 4.250105445	 -0.032829054
H	 -2.747654917	 5.253023911	 -0.015096902
C	 -2.310211314	 3.144889012	 -0.000000011
H	 -1.238655878	 3.279536218	 0.043315829
C	 -2.868730875	 1.871036347	 -0.024089082
H	 -2.241122003	 0.991008040	 -0.000000011
C	 -4.254703097	 1.765570737	 -0.080068095
H	 -4.741198321	 0.800413847	 -0.100818187
C	 -5.016602786	 2.931039966	 -0.109498598
H	 -6.097538122	 2.876676326	 -0.153189384
