23
0  1  0  1  0  1  12  11  7.11791  8.07375  5.22333  4.26749  5.11070  4.62547 20.60227 20.60257 20.60790  7.03431 -15.59894 42.07837 -4.73933 -14.70580
C	 0.845077202	 1.057918690	 0.699454900
H	 1.506406005	 1.903221780	 0.833382351
C	 1.375509314	 -0.217455339	 0.511160934
H	 2.447183668	 -0.361472579	 0.502852324
C	 0.524068101	 -1.307044317	 0.333192325
H	 0.935727260	 -2.296026407	 0.184923048
C	 -0.857715735	 -1.121463408	 0.346384085
H	 -1.518381190	 -1.966458055	 0.208363251
C	 -1.388045696	 0.153634383	 0.537613494
H	 -2.459717525	 0.297415869	 0.550032292
C	 -0.536613149	 1.243422206	 0.712738819
H	 -0.948924265	 2.232806277	 0.857366346
N	 0.032720699	 0.506861612	 6.012707664
C	 0.187404519	 1.444823217	 5.067830784
H	 0.329175346	 2.457349222	 5.425732510
C	 0.173195252	 1.177533452	 3.701331346
H	 0.303435310	 1.978559250	 2.987445934
C	 -0.011143059	 -0.134096233	 3.276040915
H	 -0.027709512	 -0.377214900	 2.222692982
C	 -0.172991985	 -1.119130566	 4.244900004
H	 -0.319535006	 -2.154341534	 3.970128490
C	 -0.143789512	 -0.751797465	 5.587989510
H	 -0.267385646	 -1.499311434	 6.362090507
