23
0  1  0  1  0  1  12  11 -2.35078 -2.18818 -2.74771 -2.91031 -2.79006 -2.85934  0.60915  0.60794  0.60851 -2.41971 -1.83437  3.29464 -0.54927 -3.33071
C	 0.055015310	 1.195242624	 0.715355511
H	 0.100302405	 2.121961012	 1.271207803
C	 -0.007930440	 -0.020798650	 1.394084625
H	 -0.015233282	 -0.036744495	 2.475282256
C	 -0.061062864	 -1.216276421	 0.678655418
H	 -0.107657330	 -2.159659292	 1.205334000
C	 -0.054097848	 -1.195329974	 -0.715422629
H	 -0.095304259	 -2.122485881	 -1.270605935
C	 0.005917739	 0.021039341	 -1.394051208
H	 0.009146133	 0.037574952	 -2.475265341
C	 0.061875761	 1.216143111	 -0.678621658
H	 0.112110743	 2.159115012	 -1.205953486
N	 -5.817859880	 1.622257105	 2.931948376
C	 -4.825534440	 2.364718745	 2.421524720
H	 -4.944230883	 3.437747558	 2.510529468
C	 -3.695750547	 1.830770983	 1.807151398
H	 -2.928730001	 2.483156602	 1.414328703
C	 -3.575090369	 0.448322434	 1.709672549
H	 -2.711275745	 -0.000000000	 1.238764606
C	 -4.596891093	 -0.335999575	 2.234970476
H	 -4.554212365	 -1.415097572	 2.186369758
C	 -5.687694091	 0.292376540	 2.830762462
H	 -6.496700840	 -0.295171421	 3.247392952
