23
0  1  0  1  0  1  12  11 -2.10030 -2.00585 -2.38332 -2.47777 -2.41095 -2.44889 -0.18314 -0.18200 -0.18036 -2.18614 -1.08002  1.39038 -0.28014 -2.21636
C	 0.055015310	 1.195242624	 0.715355511
H	 0.100302405	 2.121961012	 1.271207803
C	 -0.007930440	 -0.020798650	 1.394084625
H	 -0.015233282	 -0.036744495	 2.475282256
C	 -0.061062864	 -1.216276421	 0.678655418
H	 -0.107657330	 -2.159659292	 1.205334000
C	 -0.054097848	 -1.195329974	 -0.715422629
H	 -0.095304259	 -2.122485881	 -1.270605935
C	 0.005917739	 0.021039341	 -1.394051208
H	 0.009146133	 0.037574952	 -2.475265341
C	 0.061875761	 1.216143111	 -0.678621658
H	 0.112110743	 2.159115012	 -1.205953486
N	 -6.089013138	 1.622258927	 3.055824842
C	 -5.096687698	 2.364720567	 2.545401186
H	 -5.215384141	 3.437749380	 2.634405934
C	 -3.966903805	 1.830772805	 1.931027864
H	 -3.199883259	 2.483158424	 1.538205169
C	 -3.846243627	 0.448324256	 1.833549015
H	 -2.982429003	 0.000001822	 1.362641072
C	 -4.868044351	 -0.335997753	 2.358846942
H	 -4.825365623	 -1.415095750	 2.310246224
C	 -5.958847349	 0.292378362	 2.954638928
H	 -6.767854098	 -0.295169599	 3.371269418
