23
0  1  0  1  0  1  12  11  0.46590  1.11402 -1.03622 -1.68434 -1.13365 -1.45286 10.43409 10.42909 10.42711  0.56302 -9.32144 23.45379 -2.72842 -10.84091
C	 -2.532544523	 1.195242624	 -0.715355511
H	 -2.577831618	 2.121961012	 -1.271207803
C	 -2.469598773	 -0.020798650	 -1.394084625
H	 -2.462295931	 -0.036744495	 -2.475282256
C	 -2.416466349	 -1.216276421	 -0.678655418
H	 -2.369871883	 -2.159659292	 -1.205334000
C	 -2.423431365	 -1.195329974	 0.715422629
H	 -2.382224954	 -2.122485881	 1.270605935
C	 -2.483446952	 0.021039341	 1.394051208
H	 -2.486675346	 0.037574952	 2.475265341
C	 -2.539404974	 1.216143111	 0.678621658
H	 -2.589639956	 2.159115012	 1.205953486
N	 2.580510280	 1.622253461	 1.843788906
C	 1.642307707	 2.364715101	 1.239621695
H	 1.778736302	 3.437743914	 1.297913455
C	 0.545352857	 1.830767339	 0.568386803
H	 -0.178351849	 2.483152958	 0.100538872
C	 0.400603608	 0.448318790	 0.512631448
H	 -0.439121945	 -0.000003644	 0.000000011
C	 1.366425319	 -0.336003219	 1.134887870
H	 1.302996499	 -1.415101216	 1.122227366
C	 2.427797814	 0.292372896	 1.781654983
H	 3.193113777	 -0.295175065	 2.273960134
