23
0  1  0  1  0  1  12  11 -3.26869 -3.05571 -3.82182 -4.03480 -3.88140 -3.97007  0.45627  0.45106  0.45110 -3.39821 -2.05380  3.54574 -0.63217 -4.25798
C	 0.845077202	 1.057918690	 0.699454900
H	 1.506406005	 1.903221780	 0.833382351
C	 1.375509314	 -0.217455339	 0.511160934
H	 2.447183668	 -0.361472579	 0.502852324
C	 0.524068101	 -1.307044317	 0.333192325
H	 0.935727260	 -2.296026407	 0.184923048
C	 -0.857715735	 -1.121463408	 0.346384085
H	 -1.518381190	 -1.966458055	 0.208363251
C	 -1.388045696	 0.153634383	 0.537613494
H	 -2.459717525	 0.297415869	 0.550032292
C	 -0.536613149	 1.243422206	 0.712738819
H	 -0.948924265	 2.232806277	 0.857366346
N	 0.022008693	 0.334150032	 6.862493148
C	 0.176692513	 1.272111637	 5.917616268
H	 0.318463340	 2.284637642	 6.275517994
C	 0.162483246	 1.004821872	 4.551116830
H	 0.292723304	 1.805847670	 3.837231418
C	 -0.021855065	 -0.306807813	 4.125826399
H	 -0.038421518	 -0.549926480	 3.072478466
C	 -0.183703991	 -1.291842146	 5.094685488
H	 -0.330247012	 -2.327053114	 4.819913974
C	 -0.154501518	 -0.924509045	 6.437774994
H	 -0.278097652	 -1.672023014	 7.211875991
