23
0  1  0  1  0  1  12  11 -1.88760 -1.80408 -2.13636 -2.21989 -2.16102 -2.19465 -0.22625 -0.22615 -0.22520 -1.97032 -1.00355  1.26441 -0.28688 -1.94430
C	 0.055015310	 1.195242624	 0.715355511
H	 0.100302405	 2.121961012	 1.271207803
C	 -0.007930440	 -0.020798650	 1.394084625
H	 -0.015233282	 -0.036744495	 2.475282256
C	 -0.061062864	 -1.216276421	 0.678655418
H	 -0.107657330	 -2.159659292	 1.205334000
C	 -0.054097848	 -1.195329974	 -0.715422629
H	 -0.095304259	 -2.122485881	 -1.270605935
C	 0.005917739	 0.021039341	 -1.394051208
H	 0.009146133	 0.037574952	 -2.475265341
C	 0.061875761	 1.216143111	 -0.678621658
H	 0.112110743	 2.159115012	 -1.205953486
N	 -6.862343494	 -1.726209713	 -0.086951905
C	 -6.268310307	 -0.525923637	 -0.032829038
H	 -6.932387233	 0.329698320	 -0.015096886
C	 -4.887967055	 -0.345531857	 0.000000005
H	 -4.468797238	 0.649785975	 0.043315845
C	 -4.064038067	 -1.466150318	 -0.024089066
H	 -2.988106761	 -1.362639244	 0.000000005
C	 -4.665688280	 -2.719170276	 -0.080068079
H	 -4.073085507	 -3.623065944	 -0.100818171
C	 -6.055964084	 -2.796260147	 -0.109498582
H	 -6.549351459	 -3.759559428	 -0.153189368
