23
0  1  0  1  0  1  12  11  7.29914  8.08759  5.89640  5.10795  5.79870  5.39910 18.41982 18.41503 18.41442  7.23464 -14.35960 38.25208 -4.65125 -12.00659
C	 0.055015310	 1.195242624	 0.715355511
H	 0.100302405	 2.121961012	 1.271207803
C	 -0.007930440	 -0.020798650	 1.394084625
H	 -0.015233282	 -0.036744495	 2.475282256
C	 -0.061062864	 -1.216276421	 0.678655418
H	 -0.107657330	 -2.159659292	 1.205334000
C	 -0.054097848	 -1.195329974	 -0.715422629
H	 -0.095304259	 -2.122485881	 -1.270605935
C	 0.005917739	 0.021039341	 -1.394051208
H	 0.009146133	 0.037574952	 -2.475265341
C	 0.061875761	 1.216143111	 -0.678621658
H	 0.112110743	 2.159115012	 -1.205953486
N	 -4.914830688	 1.622251638	 -2.710924136
C	 -3.976628115	 2.364713278	 -2.106756924
H	 -4.113056710	 3.437742091	 -2.165048685
C	 -2.879673265	 1.830765516	 -1.435522032
H	 -2.155968559	 2.483151135	 -0.967674102
C	 -2.734924016	 0.448316967	 -1.379766678
H	 -1.895198463	 -0.000005467	 -0.867135240
C	 -3.700745727	 -0.336005042	 -2.002023099
H	 -3.637316907	 -1.415103039	 -1.989362595
C	 -4.762118222	 0.292371073	 -2.648790213
H	 -5.527434185	 -0.295176888	 -3.141095364
