23
0  1  0  1  0  1  12  11  2.10089  2.62350  1.09913  0.57652  1.02028  0.76258 10.29254 10.28568 10.28296  2.29831 -7.70641 21.22401 -2.49822 -8.72108
C	 -2.532544523	 1.195242624	 -0.715355511
H	 -2.577831618	 2.121961012	 -1.271207803
C	 -2.469598773	 -0.020798650	 -1.394084625
H	 -2.462295931	 -0.036744495	 -2.475282256
C	 -2.416466349	 -1.216276421	 -0.678655418
H	 -2.369871883	 -2.159659292	 -1.205334000
C	 -2.423431365	 -1.195329974	 0.715422629
H	 -2.382224954	 -2.122485881	 1.270605935
C	 -2.483446952	 0.021039341	 1.394051208
H	 -2.486675346	 0.037574952	 2.475265341
C	 -2.539404974	 1.216143111	 0.678621658
H	 -2.589639956	 2.159115012	 1.205953486
N	 2.487753721	 3.173398553	 0.086951921
C	 1.151258894	 3.259093760	 0.032829054
H	 0.742307007	 4.262012226	 0.015096902
C	 0.304863404	 2.153877328	 0.000000011
H	 -0.766692032	 2.288524534	 -0.043315829
C	 0.863382965	 0.880024663	 0.024089082
H	 0.235774093	 -0.000003644	 0.000000011
C	 2.249355187	 0.774559052	 0.080068095
H	 2.735850411	 -0.190597837	 0.100818187
C	 3.011254876	 1.940028281	 0.109498598
H	 4.092190212	 1.885664641	 0.153189384
