23
0  1  0  1  0  1  12  11 -2.50934 -2.09936 -3.52644 -3.93642 -3.60789 -3.79861  4.23761  4.23022  4.22835 -2.53409 -4.82987 11.19487 -1.45691 -7.44219
C	 -2.532544523	 1.195242624	 -0.715355511
H	 -2.577831618	 2.121961012	 -1.271207803
C	 -2.469598773	 -0.020798650	 -1.394084625
H	 -2.462295931	 -0.036744495	 -2.475282256
C	 -2.416466349	 -1.216276421	 -0.678655418
H	 -2.369871883	 -2.159659292	 -1.205334000
C	 -2.423431365	 -1.195329974	 0.715422629
H	 -2.382224954	 -2.122485881	 1.270605935
C	 -2.483446952	 0.021039341	 1.394051208
H	 -2.486675346	 0.037574952	 2.475265341
C	 -2.539404974	 1.216143111	 0.678621658
H	 -2.589639956	 2.159115012	 1.205953486
N	 2.921371400	 1.622255283	 -1.693183765
C	 1.929045960	 2.364716923	 -1.182760108
H	 2.047742403	 3.437745736	 -1.271764857
C	 0.799262067	 1.830769161	 -0.568386787
H	 0.032241521	 2.483154780	 -0.175564092
C	 0.678601889	 0.448320612	 -0.470907938
H	 -0.185212735	 -0.000001822	 0.000000005
C	 1.700402613	 -0.336001397	 -0.996205864
H	 1.657723885	 -1.415099394	 -0.947605146
C	 2.791205611	 0.292374718	 -1.591997851
H	 3.600212360	 -0.295173243	 -2.008628341
