23
0  1  0  1  0  1  12  11 -2.37727 -2.20478 -2.75508 -2.92758 -2.79908 -2.87357  0.90624  0.90501  0.90452 -2.41999 -1.67879  3.35900 -0.47763 -3.62258
C	 0.055015310	 1.195242624	 0.715355511
H	 0.100302405	 2.121961012	 1.271207803
C	 -0.007930440	 -0.020798650	 1.394084625
H	 -0.015233282	 -0.036744495	 2.475282256
C	 -0.061062864	 -1.216276421	 0.678655418
H	 -0.107657330	 -2.159659292	 1.205334000
C	 -0.054097848	 -1.195329974	 -0.715422629
H	 -0.095304259	 -2.122485881	 -1.270605935
C	 0.005917739	 0.021039341	 -1.394051208
H	 0.009146133	 0.037574952	 -2.475265341
C	 0.061875761	 1.216143111	 -0.678621658
H	 0.112110743	 2.159115012	 -1.205953486
N	 -5.053446341	 4.412166803	 -0.086951910
C	 -3.716951514	 4.497862011	 -0.032829043
H	 -3.307999627	 5.500780477	 -0.015096891
C	 -2.870556024	 3.392645578	 0.000000000
H	 -1.799000588	 3.527292784	 0.043315840
C	 -3.429075585	 2.118792913	 -0.024089071
H	 -2.801466713	 1.238764606	 -0.000000000
C	 -4.815047807	 2.013327303	 -0.080068084
H	 -5.301543031	 1.048170413	 -0.100818176
C	 -5.576947496	 3.178796532	 -0.109498587
H	 -6.657882832	 3.124432892	 -0.153189373
