23
0  1  0  1  0  1  12  11 -3.03704 -2.87104 -3.56701 -3.73301 -3.61301 -3.68235  0.13796  0.13591  0.13599 -3.17972 -1.58537  2.48861 -0.45273 -3.63023
C	 -2.532544523	 1.195242624	 -0.715355511
H	 -2.577831618	 2.121961012	 -1.271207803
C	 -2.469598773	 -0.020798650	 -1.394084625
H	 -2.462295931	 -0.036744495	 -2.475282256
C	 -2.416466349	 -1.216276421	 -0.678655418
H	 -2.369871883	 -2.159659292	 -1.205334000
C	 -2.423431365	 -1.195329974	 0.715422629
H	 -2.382224954	 -2.122485881	 1.270605935
C	 -2.483446952	 0.021039341	 1.394051208
H	 -2.486675346	 0.037574952	 2.475265341
C	 -2.539404974	 1.216143111	 0.678621658
H	 -2.589639956	 2.159115012	 1.205953486
N	 3.430832138	 1.622258927	 -1.693183775
C	 2.438506698	 2.364720567	 -1.182760118
H	 2.557203141	 3.437749380	 -1.271764867
C	 1.308722805	 1.830772805	 -0.568386797
H	 0.541702259	 2.483158424	 -0.175564102
C	 1.188062627	 0.448324256	 -0.470907948
H	 0.324248003	 0.000001822	 -0.000000005
C	 2.209863351	 -0.335997753	 -0.996205874
H	 2.167184623	 -1.415095750	 -0.947605156
C	 3.300666349	 0.292378362	 -1.591997861
H	 4.109673098	 -0.295169599	 -2.008628351
