23
0  1  0  1  0  1  12  11 -3.03121 -2.70128 -3.91770 -4.24763 -3.99000 -4.13968  2.61886  2.61229  2.61054 -3.11308 -3.62212  7.88049 -1.09276 -6.27868
C	 -2.532544523	 1.195242624	 -0.715355511
H	 -2.577831618	 2.121961012	 -1.271207803
C	 -2.469598773	 -0.020798650	 -1.394084625
H	 -2.462295931	 -0.036744495	 -2.475282256
C	 -2.416466349	 -1.216276421	 -0.678655418
H	 -2.369871883	 -2.159659292	 -1.205334000
C	 -2.423431365	 -1.195329974	 0.715422629
H	 -2.382224954	 -2.122485881	 1.270605935
C	 -2.483446952	 0.021039341	 1.394051208
H	 -2.486675346	 0.037574952	 2.475265341
C	 -2.539404974	 1.216143111	 0.678621658
H	 -2.589639956	 2.159115012	 1.205953486
N	 2.962759800	 1.622256194	 1.843788898
C	 2.024557227	 2.364717834	 1.239621687
H	 2.160985822	 3.437746647	 1.297913447
C	 0.927602377	 1.830770072	 0.568386795
H	 0.203897671	 2.483155691	 0.100538864
C	 0.782853128	 0.448321523	 0.512631440
H	 -0.056872425	 -0.000000911	 0.000000003
C	 1.748674839	 -0.336000486	 1.134887862
H	 1.685246019	 -1.415098483	 1.122227358
C	 2.810047334	 0.292375629	 1.781654975
H	 3.575363297	 -0.295172332	 2.273960126
