23
0  1  0  1  0  1  12  11 -2.28052 -2.06835 -2.76781 -2.97998 -2.81743 -2.91130  1.41211  1.40985  1.41010 -2.32980 -2.50657  5.05672 -0.76887 -4.11107
C	 0.055015310	 1.195242624	 0.715355511
H	 0.100302405	 2.121961012	 1.271207803
C	 -0.007930440	 -0.020798650	 1.394084625
H	 -0.015233282	 -0.036744495	 2.475282256
C	 -0.061062864	 -1.216276421	 0.678655418
H	 -0.107657330	 -2.159659292	 1.205334000
C	 -0.054097848	 -1.195329974	 -0.715422629
H	 -0.095304259	 -2.122485881	 -1.270605935
C	 0.005917739	 0.021039341	 -1.394051208
H	 0.009146133	 0.037574952	 -2.475265341
C	 0.061875761	 1.216143111	 -0.678621658
H	 0.112110743	 2.159115012	 -1.205953486
N	 -5.591779011	 1.622256194	 -3.020615274
C	 -4.653576438	 2.364717834	 -2.416448062
H	 -4.790005033	 3.437746647	 -2.474739823
C	 -3.556621588	 1.830770072	 -1.745213170
H	 -2.832916882	 2.483155691	 -1.277365240
C	 -3.411872339	 0.448321523	 -1.689457816
H	 -2.572146786	 -0.000000911	 -1.176826378
C	 -4.377694050	 -0.336000486	 -2.311714237
H	 -4.314265230	 -1.415098483	 -2.299053733
C	 -5.439066545	 0.292375629	 -2.958481351
H	 -6.204382508	 -0.295172332	 -3.450786502
