23
0  1  0  1  0  1  12  11 -3.19263 -2.98336 -3.80991 -4.01919 -3.86484 -3.95433  0.63655  0.63249  0.63187 -3.32651 -2.03837  3.64753 -0.59975 -4.33592
C	 -2.532544523	 1.195242624	 -0.715355511
H	 -2.577831618	 2.121961012	 -1.271207803
C	 -2.469598773	 -0.020798650	 -1.394084625
H	 -2.462295931	 -0.036744495	 -2.475282256
C	 -2.416466349	 -1.216276421	 -0.678655418
H	 -2.369871883	 -2.159659292	 -1.205334000
C	 -2.423431365	 -1.195329974	 0.715422629
H	 -2.382224954	 -2.122485881	 1.270605935
C	 -2.483446952	 0.021039341	 1.394051208
H	 -2.486675346	 0.037574952	 2.475265341
C	 -2.539404974	 1.216143111	 0.678621658
H	 -2.589639956	 2.159115012	 1.205953486
N	 3.303466953	 1.622258016	 -1.693183773
C	 2.311141513	 2.364719656	 -1.182760116
H	 2.429837956	 3.437748469	 -1.271764865
C	 1.181357620	 1.830771894	 -0.568386795
H	 0.414337074	 2.483157513	 -0.175564100
C	 1.060697442	 0.448323345	 -0.470907946
H	 0.196882818	 0.000000911	 -0.000000003
C	 2.082498166	 -0.335998664	 -0.996205872
H	 2.039819438	 -1.415096661	 -0.947605154
C	 3.173301164	 0.292377451	 -1.591997859
H	 3.982307913	 -0.295170510	 -2.008628349
