23
0  1  0  1  0  1  12  11 -2.22801 -2.07191 -2.66827 -2.82437 -2.71072 -2.77604  0.83833  0.83687  0.83778 -2.29749 -1.72405  3.30883 -0.50290 -3.37936
C	 -2.532544523	 1.195242624	 -0.715355511
H	 -2.577831618	 2.121961012	 -1.271207803
C	 -2.469598773	 -0.020798650	 -1.394084625
H	 -2.462295931	 -0.036744495	 -2.475282256
C	 -2.416466349	 -1.216276421	 -0.678655418
H	 -2.369871883	 -2.159659292	 -1.205334000
C	 -2.423431365	 -1.195329974	 0.715422629
H	 -2.382224954	 -2.122485881	 1.270605935
C	 -2.483446952	 0.021039341	 1.394051208
H	 -2.486675346	 0.037574952	 2.475265341
C	 -2.539404974	 1.216143111	 0.678621658
H	 -2.589639956	 2.159115012	 1.205953486
N	 3.166143757	 3.173402197	 0.086951910
C	 1.829648930	 3.259097404	 0.032829043
H	 1.420697043	 4.262015870	 0.015096891
C	 0.983253440	 2.153880972	 0.000000000
H	 -0.088301996	 2.288528178	 -0.043315840
C	 1.541773001	 0.880028307	 0.024089071
H	 0.914164129	 0.000000000	 0.000000000
C	 2.927745223	 0.774562696	 0.080068084
H	 3.414240447	 -0.190594193	 0.100818176
C	 3.689644912	 1.940031925	 0.109498587
H	 4.770580248	 1.885668285	 0.153189373
