23
0  1  0  1  0  1  12  11 -2.17511 -2.05918 -2.54178 -2.65771 -2.57675 -2.62293  0.22887  0.22845  0.22994 -2.26815 -1.27506  2.03966 -0.34466 -2.68809
C	 -2.532544523	 1.195242624	 -0.715355511
H	 -2.577831618	 2.121961012	 -1.271207803
C	 -2.469598773	 -0.020798650	 -1.394084625
H	 -2.462295931	 -0.036744495	 -2.475282256
C	 -2.416466349	 -1.216276421	 -0.678655418
H	 -2.369871883	 -2.159659292	 -1.205334000
C	 -2.423431365	 -1.195329974	 0.715422629
H	 -2.382224954	 -2.122485881	 1.270605935
C	 -2.483446952	 0.021039341	 1.394051208
H	 -2.486675346	 0.037574952	 2.475265341
C	 -2.539404974	 1.216143111	 0.678621658
H	 -2.589639956	 2.159115012	 1.205953486
N	 3.335741266	 3.173403108	 0.086951907
C	 1.999246439	 3.259098315	 0.032829040
H	 1.590294552	 4.262016781	 0.015096888
C	 1.152850949	 2.153881883	 -0.000000003
H	 0.081295513	 2.288529089	 -0.043315843
C	 1.711370510	 0.880029218	 0.024089068
H	 1.083761638	 0.000000911	 -0.000000003
C	 3.097342732	 0.774563607	 0.080068081
H	 3.583837956	 -0.190593282	 0.100818173
C	 3.859242421	 1.940032836	 0.109498584
H	 4.940177757	 1.885669196	 0.153189370
