23
0  1  0  1  0  1  12  11 -2.09611 -1.95504 -2.44595 -2.58702 -2.48278 -2.54274  0.44609  0.44400  0.44471 -2.17743 -1.66153  2.95010 -0.56472 -2.90128
C	 0.055015310	 1.195242624	 0.715355511
H	 0.100302405	 2.121961012	 1.271207803
C	 -0.007930440	 -0.020798650	 1.394084625
H	 -0.015233282	 -0.036744495	 2.475282256
C	 -0.061062864	 -1.216276421	 0.678655418
H	 -0.107657330	 -2.159659292	 1.205334000
C	 -0.054097848	 -1.195329974	 -0.715422629
H	 -0.095304259	 -2.122485881	 -1.270605935
C	 0.005917739	 0.021039341	 -1.394051208
H	 0.009146133	 0.037574952	 -2.475265341
C	 0.061875761	 1.216143111	 -0.678621658
H	 0.112110743	 2.159115012	 -1.205953486
N	 -6.590674076	 -1.602335075	 -0.086951910
C	 -5.996640889	 -0.402048999	 -0.032829043
H	 -6.660717815	 0.453572958	 -0.015096891
C	 -4.616297637	 -0.221657219	 0.000000000
H	 -4.197127820	 0.773660613	 0.043315840
C	 -3.792368649	 -1.342275680	 -0.024089071
H	 -2.716437343	 -1.238764606	 -0.000000000
C	 -4.394018862	 -2.595295638	 -0.080068084
H	 -3.801416089	 -3.499191306	 -0.100818176
C	 -5.784294666	 -2.672385509	 -0.109498587
H	 -6.277682041	 -3.635684790	 -0.153189373
