23
0  1  0  1  0  1  12  11 -3.13067 -2.92544 -3.65049 -3.85572 -3.71126 -3.79385  0.31856  0.31169  0.31389 -3.26411 -2.02143  3.41892 -0.65429 -4.00731
C	 -2.532544523	 1.195242624	 -0.715355511
H	 -2.577831618	 2.121961012	 -1.271207803
C	 -2.469598773	 -0.020798650	 -1.394084625
H	 -2.462295931	 -0.036744495	 -2.475282256
C	 -2.416466349	 -1.216276421	 -0.678655418
H	 -2.369871883	 -2.159659292	 -1.205334000
C	 -2.423431365	 -1.195329974	 0.715422629
H	 -2.382224954	 -2.122485881	 1.270605935
C	 -2.483446952	 0.021039341	 1.394051208
H	 -2.486675346	 0.037574952	 2.475265341
C	 -2.539404974	 1.216143111	 0.678621658
H	 -2.589639956	 2.159115012	 1.205953486
N	 3.937821586	 -0.363569557	 0.086951907
C	 3.343788399	 0.836716518	 0.032829040
H	 4.007865325	 1.692338475	 0.015096888
C	 1.963445147	 1.017108299	 -0.000000003
H	 1.544275330	 2.012426131	 -0.043315843
C	 1.139516159	 -0.103510162	 0.024089068
H	 0.063584853	 0.000000911	 -0.000000003
C	 1.741166372	 -1.356530121	 0.080068081
H	 1.148563599	 -2.260425788	 0.100818173
C	 3.131442176	 -1.433619992	 0.109498584
H	 3.624829551	 -2.396919273	 0.153189370
