16
0  1  0  1  0  1  12   4 -2.06793 -1.92132 -2.31360 -2.46021 -2.35083 -2.41346 -0.24324 -0.24666 -0.24523 -1.99435 -1.84293  2.65953 -0.63587 -2.17508
C	 0.000067181	 -1.394165287	 0.000029854
H	 -0.004671985	 -2.475441746	 0.000086836
C	 0.000453490	 -0.697152051	 -1.207414345
H	 -0.003762351	 -1.237830135	 -2.143792571
C	 0.000708104	 0.697037050	 -1.207355898
H	 -0.003407678	 1.237844917	 -2.143669835
C	 0.000770835	 1.394204210	 -0.000019385
H	 -0.003325649	 2.475472444	 -0.000000000
C	 0.000292107	 0.697118653	 1.207378923
H	 -0.004434374	 1.237732561	 2.143800251
C	 -0.000208444	 -0.697052764	 1.207362639
H	 -0.005222417	 -1.237656629	 2.143792341
C	 -3.593239835	 0.004860712	 1.744584121
H	 -2.668686895	 0.000000000	 1.217562140
C	 -4.646858974	 0.010596684	 2.344672948
H	 -5.569049250	 0.015645384	 2.870014075
