16
0  1  0  1  0  1  12   4 -1.84771 -1.76152 -2.02072 -2.10691 -2.04514 -2.08012 -0.72231 -0.72209 -0.72036 -1.82810 -1.21059  1.11691 -0.31906 -1.41535
C	 0.000067181	 -1.394165287	 0.000029854
H	 -0.004671985	 -2.475441746	 0.000086836
C	 0.000453490	 -0.697152051	 -1.207414345
H	 -0.003762351	 -1.237830135	 -2.143792571
C	 0.000708104	 0.697037050	 -1.207355898
H	 -0.003407678	 1.237844917	 -2.143669835
C	 0.000770835	 1.394204210	 -0.000019385
H	 -0.003325649	 2.475472444	 -0.000000000
C	 0.000292107	 0.697118653	 1.207378923
H	 -0.004434374	 1.237732561	 2.143800251
C	 -0.000208444	 -0.697052764	 1.207362639
H	 -0.005222417	 -1.237656629	 2.143792341
C	 -3.861870243	 1.875625589	 -0.005863703
H	 -2.942678682	 1.339317427	 -0.000001657
C	 -4.909062696	 2.486845764	 -0.012981104
H	 -5.825660433	 3.021873450	 -0.019117480
