16
0  1  0  1  0  1  12   4  6.18013  6.85074  5.29081  4.62019  5.20897  4.87204 13.57139 13.56341 13.57161  6.26409 -10.54324 30.16404 -5.16568 -8.19103
C	 0.000067181	 -1.394165287	 0.000029854
H	 -0.004671985	 -2.475441746	 0.000086836
C	 0.000453490	 -0.697152051	 -1.207414345
H	 -0.003762351	 -1.237830135	 -2.143792571
C	 0.000708104	 0.697037050	 -1.207355898
H	 -0.003407678	 1.237844917	 -2.143669835
C	 0.000770835	 1.394204210	 -0.000019385
H	 -0.003325649	 2.475472444	 -0.000000000
C	 0.000292107	 0.697118653	 1.207378923
H	 -0.004434374	 1.237732561	 2.143800251
C	 -0.000208444	 -0.697052764	 1.207362639
H	 -0.005222417	 -1.237656629	 2.143792341
C	 -2.793202296	 0.004863493	 1.379320449
H	 -1.868649356	 0.000002781	 0.852298468
C	 -3.846821435	 0.010599465	 1.979409276
H	 -4.769011711	 0.015648165	 2.504750403
