16
0  1  0  1  0  1  12   4 -2.70149 -2.46001 -3.13014 -3.37161 -3.19105 -3.29593  0.19364  0.18197  0.18080 -2.61562 -2.21800  3.87971 -0.89970 -3.37762
C	 -2.435191461	 -1.394165287	 -0.000029854
H	 -2.430452296	 -2.475441746	 -0.000086836
C	 -2.435577770	 -0.697152051	 1.207414345
H	 -2.431361929	 -1.237830135	 2.143792571
C	 -2.435832384	 0.697037050	 1.207355898
H	 -2.431716603	 1.237844917	 2.143669835
C	 -2.435895116	 1.394204210	 0.000019385
H	 -2.431798632	 2.475472444	 -0.000000000
C	 -2.435416388	 0.697118653	 -1.207378923
H	 -2.430689907	 1.237732561	 -2.143800251
C	 -2.434915836	 -0.697052764	 -1.207362639
H	 -2.429901864	 -1.237656629	 -2.143792341
C	 0.986017608	 0.004860712	 -0.527021981
H	 0.061464669	 0.000000000	 0.000000000
C	 2.039636749	 0.010596684	 -1.127110808
H	 2.961827024	 0.015645384	 -1.652451935
