16
0  1  0  1  0  1  12   4  0.09075  0.64097 -0.82670 -1.37691 -0.91085 -1.17771  6.47479  6.46675  6.47287  0.36260 -6.35569 16.87609 -2.99918 -7.15862
C	 -2.435191461	 -1.394165287	 -0.000029854
H	 -2.430452296	 -2.475441746	 -0.000086836
C	 -2.435577770	 -0.697152051	 1.207414345
H	 -2.431361929	 -1.237830135	 2.143792571
C	 -2.435832384	 0.697037050	 1.207355898
H	 -2.431716603	 1.237844917	 2.143669835
C	 -2.435895116	 1.394204210	 0.000019385
H	 -2.431798632	 2.475472444	 -0.000000000
C	 -2.435416388	 0.697118653	 -1.207378923
H	 -2.430689907	 1.237732561	 -2.143800251
C	 -2.434915836	 -0.697052764	 -1.207362639
H	 -2.429901864	 -1.237656629	 -2.143792341
C	 0.486916804	 -0.527887307	 0.005858732
H	 -0.437135468	 0.000001854	 -0.000003314
C	 1.539845230	 -1.129172487	 0.012976133
H	 2.461491667	 -1.655455570	 0.019112509
