16
0  1  0  1  0  1  12   4 -2.16247 -1.79908 -2.78324 -3.14664 -2.85749 -3.02410  2.14261  2.13014  2.13146 -1.98322 -3.62126  8.18765 -1.63936 -4.91024
C	 -2.435191461	 -1.394165287	 -0.000029854
H	 -2.430452296	 -2.475441746	 -0.000086836
C	 -2.435577770	 -0.697152051	 1.207414345
H	 -2.431361929	 -1.237830135	 2.143792571
C	 -2.435832384	 0.697037050	 1.207355898
H	 -2.431716603	 1.237844917	 2.143669835
C	 -2.435895116	 1.394204210	 0.000019385
H	 -2.431798632	 2.475472444	 -0.000000000
C	 -2.435416388	 0.697118653	 -1.207378923
H	 -2.430689907	 1.237732561	 -2.143800251
C	 -2.434915836	 -0.697052764	 -1.207362639
H	 -2.429901864	 -1.237656629	 -2.143792341
C	 0.736428518	 -0.527888234	 0.005860389
H	 -0.187623754	 0.000000927	 -0.000001657
C	 1.789356944	 -1.129173414	 0.012977790
H	 2.711003381	 -1.655456497	 0.019114166
