16
0  1  0  1  0  1  12   4 -2.53534 -2.37719 -2.84261 -3.00075 -2.88696 -2.95346 -0.59250 -0.59851 -0.60020 -2.50608 -1.47375  1.80342 -0.50140 -2.33435
C	 -2.435191461	 -1.394165287	 -0.000029854
H	 -2.430452296	 -2.475441746	 -0.000086836
C	 -2.435577770	 -0.697152051	 1.207414345
H	 -2.431361929	 -1.237830135	 2.143792571
C	 -2.435832384	 0.697037050	 1.207355898
H	 -2.431716603	 1.237844917	 2.143669835
C	 -2.435895116	 1.394204210	 0.000019385
H	 -2.431798632	 2.475472444	 -0.000000000
C	 -2.435416388	 0.697118653	 -1.207378923
H	 -2.430689907	 1.237732561	 -2.143800251
C	 -2.434915836	 -0.697052764	 -1.207362639
H	 -2.429901864	 -1.237656629	 -2.143792341
C	 1.235486993	 0.004859785	 -0.527020324
H	 0.310934054	 -0.000000927	 0.000001657
C	 2.289106134	 0.010595757	 -1.127109151
H	 3.211296409	 0.015644457	 -1.652450278
