16
0  1  0  1  0  1  12   4  0.09096  0.64118 -0.82636 -1.37658 -0.91057 -1.17738  6.47465  6.46660  6.47277  0.36315 -6.35443 16.87602 -2.99969 -7.15875
C	 -2.435191461	 -1.394165287	 -0.000029854
H	 -2.430452296	 -2.475441746	 -0.000086836
C	 -2.435577770	 -0.697152051	 1.207414345
H	 -2.431361929	 -1.237830135	 2.143792571
C	 -2.435832384	 0.697037050	 1.207355898
H	 -2.431716603	 1.237844917	 2.143669835
C	 -2.435895116	 1.394204210	 0.000019385
H	 -2.431798632	 2.475472444	 -0.000000000
C	 -2.435416388	 0.697118653	 -1.207378923
H	 -2.430689907	 1.237732561	 -2.143800251
C	 -2.434915836	 -0.697052764	 -1.207362639
H	 -2.429901864	 -1.237656629	 -2.143792341
C	 0.487078838	 0.004862566	 -0.527025295
H	 -0.437474101	 0.000001854	 -0.000003314
C	 1.540697979	 0.010598538	 -1.127114122
H	 2.462888254	 0.015647238	 -1.652455248
