16
0  1  0  1  0  1  12   4 -1.99135 -1.87875 -2.19539 -2.30799 -2.22623 -2.27292 -0.56204 -0.56358 -0.56222 -1.94951 -1.47386  1.72071 -0.44878 -1.74757
C	 0.000067181	 -1.394165287	 0.000029854
H	 -0.004671985	 -2.475441746	 0.000086836
C	 0.000453490	 -0.697152051	 -1.207414345
H	 -0.003762351	 -1.237830135	 -2.143792571
C	 0.000708104	 0.697037050	 -1.207355898
H	 -0.003407678	 1.237844917	 -2.143669835
C	 0.000770835	 1.394204210	 -0.000019385
H	 -0.003325649	 2.475472444	 -0.000000000
C	 0.000292107	 0.697118653	 1.207378923
H	 -0.004434374	 1.237732561	 2.143800251
C	 -0.000208444	 -0.697052764	 1.207362639
H	 -0.005222417	 -1.237656629	 2.143792341
C	 -3.731503307	 -1.806329872	 -0.005862874
H	 -2.807451034	 -1.278440710	 -0.000000828
C	 -4.784431732	 -2.407615051	 -0.012980275
H	 -5.706078169	 -2.933898134	 -0.019116651
