16
0  1  0  1  0  1  12   4 -1.99721 -1.80819 -2.29495 -2.48397 -2.33895 -2.42200  0.31480  0.30990  0.31176 -1.88520 -2.34171  4.05466 -0.90010 -2.69804
C	 0.000067181	 -1.394165287	 0.000029854
H	 -0.004671985	 -2.475441746	 0.000086836
C	 0.000453490	 -0.697152051	 -1.207414345
H	 -0.003762351	 -1.237830135	 -2.143792571
C	 0.000708104	 0.697037050	 -1.207355898
H	 -0.003407678	 1.237844917	 -2.143669835
C	 0.000770835	 1.394204210	 -0.000019385
H	 -0.003325649	 2.475472444	 -0.000000000
C	 0.000292107	 0.697118653	 1.207378923
H	 -0.004434374	 1.237732561	 2.143800251
C	 -0.000208444	 -0.697052764	 1.207362639
H	 -0.005222417	 -1.237656629	 2.143792341
C	 -3.459900245	 0.004861175	 1.683706842
H	 -2.535347305	 0.000000463	 1.156684861
C	 -4.513519384	 0.010597147	 2.283795669
H	 -5.435709660	 0.015645847	 2.809136796
