16
0  1  0  1  0  1  12   4 -2.06566 -1.91916 -2.31131 -2.45780 -2.34832 -2.41101 -0.24244 -0.24578 -0.24436 -1.99218 -1.84239  2.65490 -0.63156 -2.17313
C	 0.000067181	 -1.394165287	 0.000029854
H	 -0.004671985	 -2.475441746	 0.000086836
C	 0.000453490	 -0.697152051	 -1.207414345
H	 -0.003762351	 -1.237830135	 -2.143792571
C	 0.000708104	 0.697037050	 -1.207355898
H	 -0.003407678	 1.237844917	 -2.143669835
C	 0.000770835	 1.394204210	 -0.000019385
H	 -0.003325649	 2.475472444	 -0.000000000
C	 0.000292107	 0.697118653	 1.207378923
H	 -0.004434374	 1.237732561	 2.143800251
C	 -0.000208444	 -0.697052764	 1.207362639
H	 -0.005222417	 -1.237656629	 2.143792341
C	 -3.589421306	 0.004860712	 -1.754737483
H	 -2.670730412	 0.000000000	 -1.217562140
C	 -4.635923044	 0.010596684	 -2.367154010
H	 -5.551976944	 0.015645384	 -2.903123652
