16
0  1  0  1  0  1  12   4 -2.56123 -2.26472 -3.07697 -3.37348 -3.14481 -3.27719  0.97659  0.96393  0.96350 -2.43347 -2.80815  5.66147 -1.21184 -4.07496
C	 -2.435191461	 -1.394165287	 -0.000029854
H	 -2.430452296	 -2.475441746	 -0.000086836
C	 -2.435577770	 -0.697152051	 1.207414345
H	 -2.431361929	 -1.237830135	 2.143792571
C	 -2.435832384	 0.697037050	 1.207355898
H	 -2.431716603	 1.237844917	 2.143669835
C	 -2.435895116	 1.394204210	 0.000019385
H	 -2.431798632	 2.475472444	 -0.000000000
C	 -2.435416388	 0.697118653	 -1.207378923
H	 -2.430689907	 1.237732561	 -2.143800251
C	 -2.434915836	 -0.697052764	 -1.207362639
H	 -2.429901864	 -1.237656629	 -2.143792341
C	 0.858486950	 0.536308625	 0.005861218
H	 -0.060704610	 0.000000463	 -0.000000828
C	 1.905679404	 1.147528800	 0.012978619
H	 2.822277141	 1.682556486	 0.019114995
