16
0  1  0  1  0  1  12   4 -2.15688 -1.79313 -2.77984 -3.14359 -2.85382 -3.02090  2.15656  2.14424  2.14529 -1.97728 -3.62804  8.20590 -1.63908 -4.91606
C	 -2.435191461	 -1.394165287	 -0.000029854
H	 -2.430452296	 -2.475441746	 -0.000086836
C	 -2.435577770	 -0.697152051	 1.207414345
H	 -2.431361929	 -1.237830135	 2.143792571
C	 -2.435832384	 0.697037050	 1.207355898
H	 -2.431716603	 1.237844917	 2.143669835
C	 -2.435895116	 1.394204210	 0.000019385
H	 -2.431798632	 2.475472444	 -0.000000000
C	 -2.435416388	 0.697118653	 -1.207378923
H	 -2.430689907	 1.237732561	 -2.143800251
C	 -2.434915836	 -0.697052764	 -1.207362639
H	 -2.429901864	 -1.237656629	 -2.143792341
C	 0.733617235	 0.536309089	 0.005860389
H	 -0.185574325	 0.000000927	 -0.000001657
C	 1.780809689	 1.147529264	 0.012977790
H	 2.697407426	 1.682556950	 0.019114166
