16
0  1  0  1  0  1  12   4  6.05319  6.90234  4.68786  3.83872  4.59236  4.16147 15.50652 15.50446 15.51587  6.21749 -11.81376 33.96731 -5.44665 -10.48941
C	 -2.435191461	 -1.394165287	 -0.000029854
H	 -2.430452296	 -2.475441746	 -0.000086836
C	 -2.435577770	 -0.697152051	 1.207414345
H	 -2.431361929	 -1.237830135	 2.143792571
C	 -2.435832384	 0.697037050	 1.207355898
H	 -2.431716603	 1.237844917	 2.143669835
C	 -2.435895116	 1.394204210	 0.000019385
H	 -2.431798632	 2.475472444	 -0.000000000
C	 -2.435416388	 0.697118653	 -1.207378923
H	 -2.430689907	 1.237732561	 -2.143800251
C	 -2.434915836	 -0.697052764	 -1.207362639
H	 -2.429901864	 -1.237656629	 -2.143792341
C	 0.233720240	 0.004863493	 0.537170372
H	 -0.684970653	 0.000002781	 -0.000004970
C	 1.280221980	 0.010599465	 1.149586900
H	 2.196275879	 0.015648165	 1.685556542
