16
0  1  0  1  0  1  12   4 -1.68316 -1.44005 -2.04843 -2.29154 -2.09917 -2.20917  1.24278  1.23670  1.23958 -1.52645 -3.04481  6.14337 -1.27144 -3.35356
C	 0.000067181	 -1.394165287	 0.000029854
H	 -0.004671985	 -2.475441746	 0.000086836
C	 0.000453490	 -0.697152051	 -1.207414345
H	 -0.003762351	 -1.237830135	 -2.143792571
C	 0.000708104	 0.697037050	 -1.207355898
H	 -0.003407678	 1.237844917	 -2.143669835
C	 0.000770835	 1.394204210	 -0.000019385
H	 -0.003325649	 2.475472444	 -0.000000000
C	 0.000292107	 0.697118653	 1.207378923
H	 -0.004434374	 1.237732561	 2.143800251
C	 -0.000208444	 -0.697052764	 1.207362639
H	 -0.005222417	 -1.237656629	 2.143792341
C	 -3.322537775	 0.004861639	 -1.632979612
H	 -2.403846881	 0.000000927	 -1.095804269
C	 -4.369039513	 0.010597611	 -2.245396139
H	 -5.285093413	 0.015646311	 -2.781365781
