16
0  1  0  1  0  1  12   4 -2.66189 -2.46599 -3.02422 -3.22012 -3.07673 -3.16040 -0.28607 -0.29509 -0.29692 -2.60928 -1.78644  2.65339 -0.66849 -2.80774
C	 -2.435191461	 -1.394165287	 -0.000029854
H	 -2.430452296	 -2.475441746	 -0.000086836
C	 -2.435577770	 -0.697152051	 1.207414345
H	 -2.431361929	 -1.237830135	 2.143792571
C	 -2.435832384	 0.697037050	 1.207355898
H	 -2.431716603	 1.237844917	 2.143669835
C	 -2.435895116	 1.394204210	 0.000019385
H	 -2.431798632	 2.475472444	 -0.000000000
C	 -2.435416388	 0.697118653	 -1.207378923
H	 -2.430689907	 1.237732561	 -2.143800251
C	 -2.434915836	 -0.697052764	 -1.207362639
H	 -2.429901864	 -1.237656629	 -2.143792341
C	 1.108226378	 0.536307699	 0.005862874
H	 0.189034818	 -0.000000463	 0.000000828
C	 2.155418832	 1.147527874	 0.012980275
H	 3.072016569	 1.682555560	 0.019116651
