16
0  1  0  1  0  1  12   4  6.11996  6.78705  5.23099  4.56391  5.14976  4.81455 13.49045 13.48217 13.49042  6.21442 -10.48862 30.02269 -5.15640 -8.16325
C	 0.000067181	 -1.394165287	 0.000029854
H	 -0.004671985	 -2.475441746	 0.000086836
C	 0.000453490	 -0.697152051	 -1.207414345
H	 -0.003762351	 -1.237830135	 -2.143792571
C	 0.000708104	 0.697037050	 -1.207355898
H	 -0.003407678	 1.237844917	 -2.143669835
C	 0.000770835	 1.394204210	 -0.000019385
H	 -0.003325649	 2.475472444	 -0.000000000
C	 0.000292107	 0.697118653	 1.207378923
H	 -0.004434374	 1.237732561	 2.143800251
C	 -0.000208444	 -0.697052764	 1.207362639
H	 -0.005222417	 -1.237656629	 2.143792341
C	 -2.792494395	 1.388604441	 -0.005857076
H	 -1.873302834	 0.852296279	 0.000004970
C	 -3.839686848	 1.999824616	 -0.012974477
H	 -4.756284585	 2.534852302	 -0.019110853
