16
0  1  0  1  0  1  12   4 -2.06105 -1.91511 -2.30506 -2.45100 -2.34254 -2.40469 -0.24789 -0.25118 -0.24986 -1.98983 -1.83108  2.63617 -0.63207 -2.16286
C	 0.000067181	 -1.394165287	 0.000029854
H	 -0.004671985	 -2.475441746	 0.000086836
C	 0.000453490	 -0.697152051	 -1.207414345
H	 -0.003762351	 -1.237830135	 -2.143792571
C	 0.000708104	 0.697037050	 -1.207355898
H	 -0.003407678	 1.237844917	 -2.143669835
C	 0.000770835	 1.394204210	 -0.000019385
H	 -0.003325649	 2.475472444	 -0.000000000
C	 0.000292107	 0.697118653	 1.207378923
H	 -0.004434374	 1.237732561	 2.143800251
C	 -0.000208444	 -0.697052764	 1.207362639
H	 -0.005222417	 -1.237656629	 2.143792341
C	 -3.597905405	 -1.745451302	 -0.005862046
H	 -2.673853132	 -1.217562140	 0.000000000
C	 -4.650833830	 -2.346736481	 -0.012979447
H	 -5.572480267	 -2.873019564	 -0.019115823
