16
0  1  0  1  0  1  12   4 -2.52917 -2.37123 -2.83761 -2.99555 -2.88173 -2.94829 -0.58354 -0.58939 -0.59119 -2.50026 -1.46958  1.80453 -0.50011 -2.33509
C	 -2.435191461	 -1.394165287	 -0.000029854
H	 -2.430452296	 -2.475441746	 -0.000086836
C	 -2.435577770	 -0.697152051	 1.207414345
H	 -2.431361929	 -1.237830135	 2.143792571
C	 -2.435832384	 0.697037050	 1.207355898
H	 -2.431716603	 1.237844917	 2.143669835
C	 -2.435895116	 1.394204210	 0.000019385
H	 -2.431798632	 2.475472444	 -0.000000000
C	 -2.435416388	 0.697118653	 -1.207378923
H	 -2.430689907	 1.237732561	 -2.143800251
C	 -2.434915836	 -0.697052764	 -1.207362639
H	 -2.429901864	 -1.237656629	 -2.143792341
C	 1.233096093	 0.536307235	 0.005863703
H	 0.313904533	 -0.000000927	 0.000001657
C	 2.280288547	 1.147527410	 0.012981104
H	 3.196886284	 1.682555096	 0.019117480
