16
0  1  0  1  0  1  12   4 -2.66127 -2.46537 -3.02384 -3.21974 -3.07631 -3.15999 -0.28448 -0.29350 -0.29531 -2.60815 -1.78659  2.65503 -0.66856 -2.80803
C	 -2.435191461	 -1.394165287	 -0.000029854
H	 -2.430452296	 -2.475441746	 -0.000086836
C	 -2.435577770	 -0.697152051	 1.207414345
H	 -2.431361929	 -1.237830135	 2.143792571
C	 -2.435832384	 0.697037050	 1.207355898
H	 -2.431716603	 1.237844917	 2.143669835
C	 -2.435895116	 1.394204210	 0.000019385
H	 -2.431798632	 2.475472444	 -0.000000000
C	 -2.435416388	 0.697118653	 -1.207378923
H	 -2.430689907	 1.237732561	 -2.143800251
C	 -2.434915836	 -0.697052764	 -1.207362639
H	 -2.429901864	 -1.237656629	 -2.143792341
C	 1.107849504	 0.004860249	 0.537176170
H	 0.189158611	 -0.000000463	 0.000000828
C	 2.154351244	 0.010596221	 1.149592698
H	 3.070405143	 0.015644921	 1.685562340
