16
0  1  0  1  0  1  12   4 -1.68517 -1.44329 -2.04872 -2.29060 -2.09968 -2.20882  1.22552  1.21925  1.22216 -1.53157 -3.02309  6.09645 -1.26739 -3.33754
C	 0.000067181	 -1.394165287	 0.000029854
H	 -0.004671985	 -2.475441746	 0.000086836
C	 0.000453490	 -0.697152051	 -1.207414345
H	 -0.003762351	 -1.237830135	 -2.143792571
C	 0.000708104	 0.697037050	 -1.207355898
H	 -0.003407678	 1.237844917	 -2.143669835
C	 0.000770835	 1.394204210	 -0.000019385
H	 -0.003325649	 2.475472444	 -0.000000000
C	 0.000292107	 0.697118653	 1.207378923
H	 -0.004434374	 1.237732561	 2.143800251
C	 -0.000208444	 -0.697052764	 1.207362639
H	 -0.005222417	 -1.237656629	 2.143792341
C	 -3.327182319	 1.632115015	 -0.005860389
H	 -2.407990758	 1.095806853	 0.000001657
C	 -4.374374772	 2.243335190	 -0.012977790
H	 -5.290972509	 2.778362876	 -0.019114166
