16
0  1  0  1  0  1  12   4  0.33895  0.74181 -0.22600 -0.62886 -0.29165 -0.48366  5.00948  5.00158  5.00854  0.56469 -5.49037 13.85194 -2.57518 -5.22170
C	 0.000067181	 -1.394165287	 0.000029854
H	 -0.004671985	 -2.475441746	 0.000086836
C	 0.000453490	 -0.697152051	 -1.207414345
H	 -0.003762351	 -1.237830135	 -2.143792571
C	 0.000708104	 0.697037050	 -1.207355898
H	 -0.003407678	 1.237844917	 -2.143669835
C	 0.000770835	 1.394204210	 -0.000019385
H	 -0.003325649	 2.475472444	 -0.000000000
C	 0.000292107	 0.697118653	 1.207378923
H	 -0.004434374	 1.237732561	 2.143800251
C	 -0.000208444	 -0.697052764	 1.207362639
H	 -0.005222417	 -1.237656629	 2.143792341
C	 -3.055654243	 0.004862566	 -1.511221741
H	 -2.136963349	 0.000001854	 -0.974046399
C	 -4.102155981	 0.010598538	 -2.123638269
H	 -5.018209881	 0.015647238	 -2.659607911
