16
0  1  0  1  0  1  12   4 -2.05938 -1.91349 -2.30340 -2.44929 -2.34069 -2.40292 -0.24713 -0.25035 -0.24903 -1.98822 -1.83092  2.63286 -0.62858 -2.16158
C	 0.000067181	 -1.394165287	 0.000029854
H	 -0.004671985	 -2.475441746	 0.000086836
C	 0.000453490	 -0.697152051	 -1.207414345
H	 -0.003762351	 -1.237830135	 -2.143792571
C	 0.000708104	 0.697037050	 -1.207355898
H	 -0.003407678	 1.237844917	 -2.143669835
C	 0.000770835	 1.394204210	 -0.000019385
H	 -0.003325649	 2.475472444	 -0.000000000
C	 0.000292107	 0.697118653	 1.207378923
H	 -0.004434374	 1.237732561	 2.143800251
C	 -0.000208444	 -0.697052764	 1.207362639
H	 -0.005222417	 -1.237656629	 2.143792341
C	 -3.594526281	 1.753870302	 -0.005862046
H	 -2.675334720	 1.217562140	 0.000000000
C	 -4.641718734	 2.365090477	 -0.012979447
H	 -5.558316471	 2.900118163	 -0.019115823
