16
0  1  0  1  0  1  12   4 -2.56632 -2.27000 -3.08027 -3.37659 -3.14839 -3.28041  0.96503  0.95222  0.95200 -2.43879 -2.80576  5.65058 -1.21261 -4.07100
C	 -2.435191461	 -1.394165287	 -0.000029854
H	 -2.430452296	 -2.475441746	 -0.000086836
C	 -2.435577770	 -0.697152051	 1.207414345
H	 -2.431361929	 -1.237830135	 2.143792571
C	 -2.435832384	 0.697037050	 1.207355898
H	 -2.431716603	 1.237844917	 2.143669835
C	 -2.435895116	 1.394204210	 0.000019385
H	 -2.431798632	 2.475472444	 -0.000000000
C	 -2.435416388	 0.697118653	 -1.207378923
H	 -2.430689907	 1.237732561	 -2.143800251
C	 -2.434915836	 -0.697052764	 -1.207362639
H	 -2.429901864	 -1.237656629	 -2.143792341
C	 0.861184375	 -0.527888698	 0.005861218
H	 -0.062867897	 0.000000463	 -0.000000828
C	 1.914112801	 -1.129173878	 0.012978619
H	 2.835759238	 -1.655456961	 0.019114995
