8
0  1  0  1  0  1   4   4 -1.47599 -1.37261 -1.46519 -1.56857 -1.50434 -1.54298 -0.70768 -0.71459 -0.71815 -1.32653 -1.33306  1.33431 -0.35290 -0.97487
C	 -0.000222006	 0.605921676	 -0.000025733
H	 0.002479248	 1.667940219	 -0.000000000
C	 0.000222006	 -0.605921676	 0.000025733
H	 0.003636875	 -1.667942477	 0.000130316
C	 -3.392200641	 0.000173946	 1.954068164
H	 -2.468966997	 0.000000000	 1.425495137
C	 -4.444153876	 0.000441157	 2.556168086
H	 -5.365448932	 0.000494151	 3.083304757
