8
0  1  0  1  0  1   4   4 -0.99381 -0.84908 -1.01477 -1.15950 -1.06100 -1.11915  0.38293  0.37565  0.37280 -0.81957 -1.48204  2.79918 -0.64642 -1.49030
C	 -0.000222006	 0.605921676	 -0.000025733
H	 0.002479248	 1.667940219	 -0.000000000
C	 0.000222006	 -0.605921676	 0.000025733
H	 0.003636875	 -1.667942477	 0.000130316
C	 -3.340263010	 1.753918767	 -0.003859153
H	 -2.419045916	 1.221852974	 0.000000000
C	 -4.389811245	 2.360184272	 -0.008401942
H	 -5.309012915	 2.890946795	 -0.012535722
