8
0  1  0  1  0  1   4   4 -1.36444 -1.28259 -1.35563 -1.43747 -1.38777 -1.41807 -0.77032 -0.77547 -0.77918 -1.25040 -1.08506  0.86876 -0.24867 -0.78543
C	 -0.601729956	 -0.028570118	 0.384934916
H	 -1.663735430	 -0.028526566	 0.379014311
C	 0.610109174	 -0.028663644	 0.388163788
H	 1.672135444	 -0.028793082	 0.387967520
C	 -0.008243971	 0.110658783	 4.434718976
H	 -0.004849591	 0.076923731	 3.371422095
C	 -0.012180394	 0.148948806	 5.646184359
H	 -0.015446626	 0.182324687	 6.707095777
