8
0  1  0  1  0  1   4   4 -1.27035 -1.06484 -1.26707 -1.47257 -1.32168 -1.40932  0.37753  0.36976  0.36881 -0.93769 -2.75879  4.78221 -1.06341 -1.89771
C	 -0.000222006	 0.605921676	 -0.000025733
H	 0.002479248	 1.667940219	 -0.000000000
C	 0.000222006	 -0.605921676	 0.000025733
H	 0.003636875	 -1.667942477	 0.000130316
C	 -3.039491070	 0.000173946	 1.750426001
H	 -2.116257426	 0.000000000	 1.221852974
C	 -4.091444305	 0.000441157	 2.352525923
H	 -5.012739361	 0.000494151	 2.879662594
