8
0  1  0  1  0  1   4   4 -1.47609 -1.37272 -1.46530 -1.56867 -1.50445 -1.54308 -0.70795 -0.71486 -0.71842 -1.32665 -1.33317  1.33424 -0.35291 -0.97481
C	 -0.601729956	 -0.028570118	 0.384934916
H	 -1.663735430	 -0.028526566	 0.379014311
C	 0.610109174	 -0.028663644	 0.388163788
H	 1.672135444	 -0.028793082	 0.387967520
C	 -0.007833099	 0.105861483	 4.299042943
H	 -0.004438719	 0.072126431	 3.235746061
C	 -0.011769522	 0.144151506	 5.510508326
H	 -0.015035754	 0.177527387	 6.571419744
