8
0  1  0  1  0  1   4   4 -1.34978 -1.19155 -1.34801 -1.50624 -1.39366 -1.46002 -0.09066 -0.09922 -0.10225 -1.09904 -1.86832  2.78623 -0.57867 -1.43827
C	 -2.715006827	 0.605921676	 0.000025733
H	 -2.717708081	 1.667940219	 -0.000000000
C	 -2.715450840	 -0.605921676	 -0.000025733
H	 -2.718865708	 -1.667942477	 -0.000130316
C	 0.872152857	 -0.531764509	 0.003859153
H	 -0.049238183	 0.000000000	 0.000000000
C	 1.921968303	 -1.137567191	 0.008401942
H	 2.841222966	 -1.668237926	 0.012535722
