8
0  1  0  1  0  1   4   4  0.32447  0.65223  0.29846 -0.02929  0.24482  0.08663  3.04100  3.03376  3.03443  0.84413 -4.55635 10.19838 -1.88802 -2.90988
C	 -2.715006827	 0.605921676	 0.000025733
H	 -2.717708081	 1.667940219	 -0.000000000
C	 -2.715450840	 -0.605921676	 -0.000025733
H	 -2.718865708	 -1.667942477	 -0.000130316
C	 0.451206965	 -0.531764509	 0.003859153
H	 -0.470184075	 0.000000000	 0.000000000
C	 1.501022411	 -1.137567191	 0.008401942
H	 2.420277074	 -1.668237926	 0.012535722
