8
0  1  0  1  0  1   4   4 -1.47606 -1.37265 -1.46525 -1.56865 -1.50439 -1.54304 -0.70768 -0.71460 -0.71815 -1.32657 -1.33319  1.33452 -0.35295 -0.97494
C	 -0.000222006	 0.605921676	 -0.000025733
H	 0.002479248	 1.667940219	 -0.000000000
C	 0.000222006	 -0.605921676	 0.000025733
H	 0.003636875	 -1.667942477	 0.000130316
C	 -3.388291512	 0.000173946	 -1.960752413
H	 -2.468917021	 0.000000000	 -1.425495137
C	 -4.435701958	 0.000441157	 -2.570720677
H	 -5.352863234	 0.000494151	 -3.105017265
