8
0  1  0  1  0  1   4   4 -1.10469 -0.91053 -1.11309 -1.30724 -1.15688 -1.24552  0.51692  0.51070  0.50663 -0.78854 -2.39351  4.22801 -0.83469 -1.78835
C	 -2.715006827	 0.605921676	 0.000025733
H	 -2.717708081	 1.667940219	 -0.000000000
C	 -2.715450840	 -0.605921676	 -0.000025733
H	 -2.718865708	 -1.667942477	 -0.000130316
C	 0.734360482	 0.000173946	 -0.528573026
H	 -0.188873161	 0.000000000	 0.000000000
C	 1.786313717	 0.000441157	 -1.130672949
H	 2.707608774	 0.000494151	 -1.657809620
