8
0  1  0  1  0  1   4   4 -1.14832 -0.94741 -1.15113 -1.35204 -1.20095 -1.28926  0.48086  0.47190  0.46964 -0.81657 -2.46249  4.30897 -0.85203 -1.81102
C	 -2.715006827	 0.605921676	 0.000025733
H	 -2.717708081	 1.667940219	 -0.000000000
C	 -2.715450840	 -0.605921676	 -0.000025733
H	 -2.718865708	 -1.667942477	 -0.000130316
C	 0.731837559	 -0.531764509	 0.003859153
H	 -0.189553481	 0.000000000	 0.000000000
C	 1.781653005	 -1.137567191	 0.008401942
H	 2.700907668	 -1.668237926	 0.012535722
