8
0  1  0  1  0  1   4   4 -1.31884 -1.22148 -1.31684 -1.41420 -1.35005 -1.38855 -0.56885 -0.57397 -0.57732 -1.17723 -1.14315  1.15661 -0.27425 -0.91646
C	 -2.715006827	 0.605921676	 0.000025733
H	 -2.717708081	 1.667940219	 -0.000000000
C	 -2.715450840	 -0.605921676	 -0.000025733
H	 -2.718865708	 -1.667942477	 -0.000130316
C	 1.152675653	 0.532065793	 0.003859153
H	 0.231458559	 0.000000000	 0.000000000
C	 2.202223888	 1.138331297	 0.008401942
H	 3.121425557	 1.669093821	 0.012535722
