8
0  1  0  1  0  1   4   4 -1.17181 -1.09878 -1.17498 -1.24801 -1.19946 -1.22920 -0.59214 -0.59407 -0.59803 -1.06799 -0.88417  0.72683 -0.18555 -0.72510
C	 -2.715006827	 0.605921676	 0.000025733
H	 -2.717708081	 1.667940219	 -0.000000000
C	 -2.715450840	 -0.605921676	 -0.000025733
H	 -2.718865708	 -1.667942477	 -0.000130316
C	 1.294649855	 0.000173946	 0.535257276
H	 0.375275365	 0.000000000	 0.000000000
C	 2.342060301	 0.000441157	 1.145225539
H	 3.259221578	 0.000494151	 1.679522127
