8
0  1  0  1  0  1   4   4  5.14496  5.70143  5.07547  4.51900  5.02075  4.73167  9.58049  9.58154  9.58391  5.54831 -9.47151 24.95493 -5.03791 -4.89720
C	 -0.601729956	 -0.028570118	 0.384934916
H	 -1.663735430	 -0.028526566	 0.379014311
C	 0.610109174	 -0.028663644	 0.388163788
H	 1.672135444	 -0.028793082	 0.387967520
C	 -0.004956990	 0.072280379	 3.349310706
H	 -0.001562610	 0.038545327	 2.286013825
C	 -0.008893413	 0.110570402	 4.560776090
H	 -0.012159645	 0.143946283	 5.621687507
