8
0  1  0  1  0  1   4   4  0.34872  0.66574  0.31507 -0.00194  0.26769  0.11125  3.04483  3.04048  3.03916  0.83884 -4.42484  9.97018 -1.83994 -2.86656
C	 -2.715006827	 0.605921676	 0.000025733
H	 -2.717708081	 1.667940219	 -0.000000000
C	 -2.715450840	 -0.605921676	 -0.000025733
H	 -2.718865708	 -1.667942477	 -0.000130316
C	 0.451785074	 0.000173946	 0.535257276
H	 -0.467589416	 0.000000000	 0.000000000
C	 1.499195520	 0.000441157	 1.145225539
H	 2.416356797	 0.000494151	 1.679522127
