8
0  1  0  1  0  1   4   4 -1.36434 -1.28247 -1.35551 -1.43738 -1.38766 -1.41797 -0.77006 -0.77521 -0.77892 -1.25028 -1.08495  0.86881 -0.24866 -0.78548
C	 -0.000222006	 0.605921676	 -0.000025733
H	 0.002479248	 1.667940219	 -0.000000000
C	 0.000222006	 -0.605921676	 0.000025733
H	 0.003636875	 -1.667942477	 0.000130316
C	 -3.509770498	 0.000173946	 2.021948885
H	 -2.586536854	 0.000000000	 1.493375858
C	 -4.561723733	 0.000441157	 2.624048807
H	 -5.483018789	 0.000494151	 3.151185478
