8
0  1  0  1  0  1   4   4  5.04449  5.59731  4.97466  4.42184  4.92148  4.63258  9.53959  9.53672  9.53662  5.57593 -9.08159 23.73270 -4.27130 -4.80388
C	 -2.715006827	 0.605921676	 0.000025733
H	 -2.717708081	 1.667940219	 -0.000000000
C	 -2.715450840	 -0.605921676	 -0.000025733
H	 -2.718865708	 -1.667942477	 -0.000130316
C	 0.170446522	 0.532065793	 0.003859153
H	 -0.750770572	 0.000000000	 0.000000000
C	 1.219994757	 1.138331297	 0.008401942
H	 2.139196426	 1.669093821	 0.012535722
