8
0  1  0  1  0  1   4   4 -1.28047 -1.18604 -1.28154 -1.37597 -1.31229 -1.35100 -0.52992 -0.53398 -0.53846 -1.14361 -1.10612  1.13577 -0.26784 -0.90542
C	 -2.715006827	 0.605921676	 0.000025733
H	 -2.717708081	 1.667940219	 -0.000000000
C	 -2.715450840	 -0.605921676	 -0.000025733
H	 -2.718865708	 -1.667942477	 -0.000130316
C	 1.155419761	 0.000173946	 -0.528573026
H	 0.232186118	 0.000000000	 0.000000000
C	 2.207372996	 0.000441157	 -1.130672949
H	 3.128668053	 0.000494151	 -1.657809620
