8
0  1  0  1  0  1   4   4 -1.36439 -1.28254 -1.35561 -1.43746 -1.38774 -1.41805 -0.77010 -0.77525 -0.77896 -1.25034 -1.08505  0.86895 -0.24870 -0.78554
C	 -0.000222006	 0.605921676	 -0.000025733
H	 0.002479248	 1.667940219	 -0.000000000
C	 0.000222006	 -0.605921676	 0.000025733
H	 0.003636875	 -1.667942477	 0.000130316
C	 -3.505858989	 0.000173946	 -2.028633134
H	 -2.586484498	 0.000000000	 -1.493375858
C	 -4.553269435	 0.000441157	 -2.638601398
H	 -5.470430711	 0.000494151	 -3.172897986
