8
0  1  0  1  0  1   4   4 -0.99458 -0.84977 -1.01553 -1.16034 -1.06178 -1.11996  0.38250  0.37522  0.37238 -0.82014 -1.48375  2.80151 -0.64702 -1.49087
C	 -0.000222006	 0.605921676	 -0.000025733
H	 0.002479248	 1.667940219	 -0.000000000
C	 0.000222006	 -0.605921676	 0.000025733
H	 0.003636875	 -1.667942477	 0.000130316
C	 -3.339810652	 -1.753617484	 -0.003859153
H	 -2.418419612	 -1.221852974	 0.000000000
C	 -4.389626098	 -2.359420165	 -0.008401942
H	 -5.308880762	 -2.890090901	 -0.012535722
