8
0  1  0  1  0  1   4   4  5.14490  5.70142  5.07546  4.51894  5.02073  4.73163  9.58067  9.58172  9.58408  5.54820 -9.47203 24.95576 -5.03810 -4.89743
C	 -0.000222006	 0.605921676	 -0.000025733
H	 0.002479248	 1.667940219	 -0.000000000
C	 0.000222006	 -0.605921676	 0.000025733
H	 0.003636875	 -1.667942477	 0.000130316
C	 -2.569211642	 0.000173946	 1.478903118
H	 -1.645977998	 0.000000000	 0.950330091
C	 -3.621164877	 0.000441157	 2.081003040
H	 -4.542459933	 0.000494151	 2.608139711
