8
0  1  0  1  0  1   4   4  4.97502  5.51062  4.89386  4.35825  4.84495  4.56232  9.42671  9.42610  9.42313  5.48125 -8.80961 23.15422 -4.15016 -4.71320
C	 -2.715006827	 0.605921676	 0.000025733
H	 -2.717708081	 1.667940219	 -0.000000000
C	 -2.715450840	 -0.605921676	 -0.000025733
H	 -2.718865708	 -1.667942477	 -0.000130316
C	 0.170830147	 0.000173946	 0.535257276
H	 -0.748544343	 0.000000000	 0.000000000
C	 1.218240593	 0.000441157	 1.145225539
H	 2.135401870	 0.000494151	 1.679522127
