8
0  1  0  1  0  1   4   4 -1.05120 -0.96722 -1.06598 -1.14995 -1.09773 -1.12943 -0.23805 -0.24225 -0.24582 -0.96220 -0.83312  1.06057 -0.27969 -0.90996
C	 -0.000222006	 0.605921676	 -0.000025733
H	 0.002479248	 1.667940219	 -0.000000000
C	 0.000222006	 -0.605921676	 0.000025733
H	 0.003636875	 -1.667942477	 0.000130316
C	 -3.608523942	 -1.889378926	 -0.003859153
H	 -2.687132902	 -1.357614416	 0.000000000
C	 -4.658339388	 -2.495181607	 -0.008401942
H	 -5.577594052	 -3.025852343	 -0.012535722
