8
0  1  0  1  0  1   4   4 -1.08208 -0.97163 -1.09843 -1.20888 -1.13758 -1.18025 -0.02452 -0.03046 -0.03390 -0.95614 -1.09835  1.72684 -0.42267 -1.16196
C	 -0.000222006	 0.605921676	 -0.000025733
H	 0.002479248	 1.667940219	 -0.000000000
C	 0.000222006	 -0.605921676	 0.000025733
H	 0.003636875	 -1.667942477	 0.000130316
C	 -3.474167297	 -1.821498205	 -0.003859153
H	 -2.552776257	 -1.289733695	 0.000000000
C	 -4.523982743	 -2.427300886	 -0.008401942
H	 -5.443237407	 -2.957971622	 -0.012535722
