8
0  1  0  1  0  1   4   4  3.75952  4.21011  3.65351  3.20292  3.59291  3.36670  7.74516  7.74139  7.73960  4.00456 -6.14804 18.34140 -3.91573 -4.27306
C	 -0.000222006	 0.605921676	 -0.000025733
H	 0.002479248	 1.667940219	 -0.000000000
C	 0.000222006	 -0.605921676	 0.000025733
H	 0.003636875	 -1.667942477	 0.000130316
C	 -2.802384071	 -1.482094601	 -0.003859153
H	 -1.880993031	 -0.950330091	 0.000000000
C	 -3.852199517	 -2.087897282	 -0.008401942
H	 -4.771454181	 -2.618568018	 -0.012535722
