8
0  1  0  1  0  1   4   4 -1.17660 -1.10335 -1.17943 -1.25268 -1.20409 -1.23386 -0.59674 -0.59874 -0.60271 -1.07247 -0.88910  0.72998 -0.18693 -0.72641
C	 -2.715006827	 0.605921676	 0.000025733
H	 -2.717708081	 1.667940219	 -0.000000000
C	 -2.715450840	 -0.605921676	 -0.000025733
H	 -2.718865708	 -1.667942477	 -0.000130316
C	 1.295772854	 0.000173946	 -0.528573026
H	 0.372539211	 0.000000000	 0.000000000
C	 2.347726089	 0.000441157	 -1.130672949
H	 3.269021146	 0.000494151	 -1.657809620
