8
0  1  0  1  0  1   4   4  0.32429  0.65211  0.29828 -0.02954  0.24465  0.08641  3.04098  3.03374  3.03440  0.84400 -4.55799 10.20035 -1.88802 -2.91034
C	 -2.715006827	 0.605921676	 0.000025733
H	 -2.717708081	 1.667940219	 -0.000000000
C	 -2.715450840	 -0.605921676	 -0.000025733
H	 -2.718865708	 -1.667942477	 -0.000130316
C	 0.451083417	 0.532065793	 0.003859153
H	 -0.470133677	 0.000000000	 0.000000000
C	 1.500631652	 1.138331297	 0.008401942
H	 2.419833321	 1.669093821	 0.012535722
