8
0  1  0  1  0  1   4   4 -1.38115 -1.25665 -1.37811 -1.50261 -1.41806 -1.46837 -0.40898 -0.41620 -0.41958 -1.19321 -1.44747  1.79702 -0.39645 -1.14631
C	 -2.715006827	 0.605921676	 0.000025733
H	 -2.717708081	 1.667940219	 -0.000000000
C	 -2.715450840	 -0.605921676	 -0.000025733
H	 -2.718865708	 -1.667942477	 -0.000130316
C	 1.012357206	 0.532065793	 0.003859153
H	 0.091140112	 0.000000000	 0.000000000
C	 2.061905441	 1.138331297	 0.008401942
H	 2.981107110	 1.669093821	 0.012535722
