8
0  1  0  1  0  1   4   4 -1.08122 -0.97086 -1.09761 -1.20797 -1.13672 -1.17936 -0.02397 -0.02989 -0.03334 -0.95546 -1.09694  1.72516 -0.42223 -1.16145
C	 -0.000222006	 0.605921676	 -0.000025733
H	 0.002479248	 1.667940219	 -0.000000000
C	 0.000222006	 -0.605921676	 0.000025733
H	 0.003636875	 -1.667942477	 0.000130316
C	 -3.474654449	 1.821799488	 -0.003859153
H	 -2.553437355	 1.289733695	 0.000000000
C	 -4.524202684	 2.428064993	 -0.008401942
H	 -5.443404354	 2.958827516	 -0.012535722
