8
0  1  0  1  0  1   4   4 -1.10021 -0.90632 -1.10899 -1.30287 -1.15260 -1.24120  0.52104  0.51484  0.51074 -0.78457 -2.38448  4.21530 -0.82946 -1.78592
C	 -2.715006827	 0.605921676	 0.000025733
H	 -2.717708081	 1.667940219	 -0.000000000
C	 -2.715450840	 -0.605921676	 -0.000025733
H	 -2.718865708	 -1.667942477	 -0.000130316
C	 0.732740001	 0.000173946	 0.535257276
H	 -0.186634489	 0.000000000	 0.000000000
C	 1.780150447	 0.000441157	 1.145225539
H	 2.697311724	 0.000494151	 1.679522127
