8
0  1  0  1  0  1   4   4  0.28958  0.62106  0.26649 -0.06499  0.20826  0.05204  3.00575  3.00087  3.00504  0.77001 -4.94521 11.02310 -2.29576 -3.01213
C	 -0.000222006	 0.605921676	 -0.000025733
H	 0.002479248	 1.667940219	 -0.000000000
C	 0.000222006	 -0.605921676	 0.000025733
H	 0.003636875	 -1.667942477	 0.000130316
C	 -2.804351356	 0.000173946	 1.614664560
H	 -1.881117712	 0.000000000	 1.086091533
C	 -3.856304591	 0.000441157	 2.216764482
H	 -4.777599647	 0.000494151	 2.743901153
