20
0  1  0  1  0  1  12   8  8.95023 10.09243  8.31301  7.17082  8.19664  7.60400 20.64965 20.63542 20.63639  9.01912 -20.32010 53.55892 -10.88058 -13.33911
C	 0.048680417	 0.697823526	 -1.206975774
H	 0.051986195	 0.156115125	 -2.142706978
C	 0.081016210	 2.091969214	 -1.206776512
H	 0.112490301	 2.632031521	 -2.142989573
C	 0.065608979	 2.789580184	 0.000128372
H	 0.084172763	 3.870600766	 0.000000000
C	 0.021907309	 2.093223254	 1.207168195
H	 0.007268464	 2.634295794	 2.143214343
C	 -0.010798125	 0.699117475	 1.207314076
H	 -0.054610040	 0.158045489	 2.142355904
C	 0.000000000	 0.000000000	 0.000000000
H	 -0.047952789	 -1.079407937	 -0.000019595
C	 -3.012552653	 0.000000000	 1.548374216
O	 -2.489785427	 -1.069127858	 1.329152406
O	 -2.473974734	 1.179100991	 1.171194220
H	 -1.636860564	 0.966890596	 0.722396908
C	 -4.316422859	 0.205669628	 2.261272935
H	 -4.737099865	 -0.755178161	 2.532183720
H	 -4.152798128	 0.807825961	 3.152062495
H	 -5.003616229	 0.750883070	 1.618743627
