20
0  1  0  1  0  1  12   8 -3.62029 -3.43489 -3.70631 -3.89171 -3.75355 -3.83426 -1.29837 -1.30802 -1.31000 -3.52215 -2.70315  2.97027 -1.02201 -2.76726
C	 0.048680417	 0.697823526	 -1.206975774
H	 0.051986195	 0.156115125	 -2.142706978
C	 0.081016210	 2.091969214	 -1.206776512
H	 0.112490301	 2.632031521	 -2.142989573
C	 0.065608979	 2.789580184	 0.000128372
H	 0.084172763	 3.870600766	 0.000000000
C	 0.021907309	 2.093223254	 1.207168195
H	 0.007268464	 2.634295794	 2.143214343
C	 -0.010798125	 0.699117475	 1.207314076
H	 -0.054610040	 0.158045489	 2.142355904
C	 0.000000000	 0.000000000	 0.000000000
H	 -0.047952789	 -1.079407937	 -0.000019595
C	 -3.935422911	 0.000000000	 -2.032241159
O	 -3.484187642	 -1.069127858	 -1.689122366
O	 -3.339486493	 1.179100991	 -1.754408997
H	 -2.532259535	 0.966890596	 -1.253845516
C	 -5.204746415	 0.205669628	 -2.804976521
H	 -5.649700540	 -0.755178161	 -3.033838102
H	 -5.894380438	 0.807825961	 -2.217878567
H	 -4.991896397	 0.750883070	 -3.721368091
