20
0  1  0  1  0  1  12   8 -3.93536 -3.67021 -4.05160 -4.31676 -4.10996 -4.22955 -0.70747 -0.71883 -0.71892 -3.73899 -3.83698  5.58847 -1.68319 -3.80729
C	 0.048680417	 0.697823526	 -1.206975774
H	 0.051986195	 0.156115125	 -2.142706978
C	 0.081016210	 2.091969214	 -1.206776512
H	 0.112490301	 2.632031521	 -2.142989573
C	 0.065608979	 2.789580184	 0.000128372
H	 0.084172763	 3.870600766	 0.000000000
C	 0.021907309	 2.093223254	 1.207168195
H	 0.007268464	 2.634295794	 2.143214343
C	 -0.010798125	 0.699117475	 1.207314076
H	 -0.054610040	 0.158045489	 2.142355904
C	 0.000000000	 0.000000000	 0.000000000
H	 -0.047952789	 -1.079407937	 -0.000019595
C	 -3.765690816	 0.000000000	 1.935467770
O	 -3.242923590	 -1.069127858	 1.716245960
O	 -3.227112897	 1.179100991	 1.558287774
H	 -2.389998727	 0.966890596	 1.109490462
C	 -5.069561022	 0.205669628	 2.648366489
H	 -5.490238028	 -0.755178161	 2.919277274
H	 -4.905936291	 0.807825961	 3.539156049
H	 -5.756754392	 0.750883070	 2.005837181
