20
0  1  0  1  0  1  12   8 -2.27503 -1.73392 -2.55022 -3.09133 -2.63360 -2.89360  3.88323  3.86998  3.88095 -1.86023 -8.27962 17.83588 -4.31458 -7.10192
C	 0.048680417	 0.697823526	 -1.206975774
H	 0.051986195	 0.156115125	 -2.142706978
C	 0.081016210	 2.091969214	 -1.206776512
H	 0.112490301	 2.632031521	 -2.142989573
C	 0.065608979	 2.789580184	 0.000128372
H	 0.084172763	 3.870600766	 0.000000000
C	 0.021907309	 2.093223254	 1.207168195
H	 0.007268464	 2.634295794	 2.143214343
C	 -0.010798125	 0.699117475	 1.207314076
H	 -0.054610040	 0.158045489	 2.142355904
C	 0.000000000	 0.000000000	 0.000000000
H	 -0.047952789	 -1.079407937	 -0.000019595
C	 -3.389121734	 0.000000000	 1.741920993
O	 -2.866354508	 -1.069127858	 1.522699183
O	 -2.850543815	 1.179100991	 1.364740997
H	 -2.013429645	 0.966890596	 0.915943685
C	 -4.692991940	 0.205669628	 2.454819712
H	 -5.113668946	 -0.755178161	 2.725730497
H	 -4.529367209	 0.807825961	 3.345609272
H	 -5.380185310	 0.750883070	 1.812290404
