20
0  1  0  1  0  1  12   8 -3.30099 -3.12682 -3.40772 -3.58189 -3.45463 -3.52922 -1.09137 -1.10289 -1.10530 -3.21883 -2.13035  2.05924 -0.65097 -2.49675
C	 0.048680417	 0.697823526	 -1.206975774
H	 0.051986195	 0.156115125	 -2.142706978
C	 0.081016210	 2.091969214	 -1.206776512
H	 0.112490301	 2.632031521	 -2.142989573
C	 0.065608979	 2.789580184	 0.000128372
H	 0.084172763	 3.870600766	 0.000000000
C	 0.021907309	 2.093223254	 1.207168195
H	 0.007268464	 2.634295794	 2.143214343
C	 -0.010798125	 0.699117475	 1.207314076
H	 -0.054610040	 0.158045489	 2.142355904
C	 0.000000000	 0.000000000	 0.000000000
H	 -0.047952789	 -1.079407937	 -0.000019595
C	 -4.515329058	 2.032241159	 0.000000000
O	 -4.562891739	 0.825178973	 0.071531957
O	 -3.358521394	 2.725866492	 -0.057358499
H	 -2.642456027	 2.067406502	 -0.027471287
C	 -5.699091099	 2.953173322	 -0.034546702
H	 -6.612330559	 2.370940910	 -0.010269583
H	 -5.661017578	 3.626501807	 0.818712052
H	 -5.663656054	 3.562273144	 -0.934590090
