20
0  1  0  1  0  1  12   8 -1.64572 -1.57979 -1.77056 -1.83649 -1.78488 -1.81291 -0.14538 -0.14102 -0.13673 -1.79522 -0.65026  1.03286 -0.42392 -1.75389
C	 -3.919615957	 0.697823526	 1.206975774
H	 -3.922921735	 0.156115125	 2.142706978
C	 -3.951951749	 2.091969214	 1.206776512
H	 -3.983425841	 2.632031521	 2.142989573
C	 -3.936544519	 2.789580184	 -0.000128372
H	 -3.955108303	 3.870600766	 0.000000000
C	 -3.892842849	 2.093223254	 -1.207168195
H	 -3.878204004	 2.634295794	 -2.143214343
C	 -3.860137414	 0.699117475	 -1.207314076
H	 -3.816325500	 0.158045489	 -2.142355904
C	 -3.870935540	 0.000000000	 -0.000000000
H	 -3.822982750	 -1.079407937	 0.000019595
C	 0.607492087	 0.000000000	 0.000000000
O	 -0.414073090	 -0.644721583	 -0.071531957
O	 0.629785415	 1.348637490	 0.057358499
H	 -0.298490348	 1.639538294	 0.027471287
C	 1.996923756	 -0.564701918	 0.034546702
H	 1.949315427	 -1.646706696	 0.010269583
H	 2.561006568	 -0.195065039	 -0.818712052
H	 2.506702154	 -0.229464358	 0.934590090
