20
0  1  0  1  0  1  12   8 50.37001 52.74358 48.87308 46.49951 48.71426 47.39900 72.67999 72.67025 72.58763 47.11408 -53.43608 151.61269 -26.00265 -25.05988
C	 0.048680417	 0.697823526	 -1.206975774
H	 0.051986195	 0.156115125	 -2.142706978
C	 0.081016210	 2.091969214	 -1.206776512
H	 0.112490301	 2.632031521	 -2.142989573
C	 0.065608979	 2.789580184	 0.000128372
H	 0.084172763	 3.870600766	 0.000000000
C	 0.021907309	 2.093223254	 1.207168195
H	 0.007268464	 2.634295794	 2.143214343
C	 -0.010798125	 0.699117475	 1.207314076
H	 -0.054610040	 0.158045489	 2.142355904
C	 0.000000000	 0.000000000	 0.000000000
H	 -0.047952789	 -1.079407937	 -0.000019595
C	 -2.623615274	 0.000000000	 -1.354827439
O	 -2.172380005	 -1.069127858	 -1.011708646
O	 -2.027678856	 1.179100991	 -1.076995277
H	 -1.220451898	 0.966890596	 -0.576431796
C	 -3.892938778	 0.205669628	 -2.127562801
H	 -4.337892903	 -0.755178161	 -2.356424383
H	 -4.582572801	 0.807825961	 -1.540464847
H	 -3.680088760	 0.750883070	 -3.043954371
