20
0  1  0  1  0  1  12   8 54.89949 57.51024 53.44919 50.83844 53.30325 51.82830 79.26122 79.25168 79.13322 48.86117 -51.11223 162.10917 -33.74099 -28.39478
C	 -3.919615957	 0.697823526	 1.206975774
H	 -3.922921735	 0.156115125	 2.142706978
C	 -3.951951749	 2.091969214	 1.206776512
H	 -3.983425841	 2.632031521	 2.142989573
C	 -3.936544519	 2.789580184	 -0.000128372
H	 -3.955108303	 3.870600766	 0.000000000
C	 -3.892842849	 2.093223254	 -1.207168195
H	 -3.878204004	 2.634295794	 -2.143214343
C	 -3.860137414	 0.699117475	 -1.207314076
H	 -3.816325500	 0.158045489	 -2.142355904
C	 -3.870935540	 0.000000000	 -0.000000000
H	 -3.822982750	 -1.079407937	 0.000019595
C	 -1.230450279	 0.000000000	 0.000000000
O	 -1.681685548	 -1.069127858	 -0.343118793
O	 -1.826386696	 1.179100991	 -0.277832161
H	 -2.633613655	 0.966890596	 -0.778395643
C	 0.038873225	 0.205669628	 0.772735362
H	 0.483827350	 -0.755178161	 1.001596944
H	 0.728507248	 0.807825961	 0.185637408
H	 -0.173976792	 0.750883070	 1.689126932
