20
0  1  0  1  0  1  12   8 -4.40791 -3.93702 -4.66356 -5.13445 -4.75688 -4.97139  0.90219  0.88337  0.89231 -4.15325 -5.65472 10.93347 -3.08657 -6.34544
C	 0.964080386	 0.875093309	 0.378013637
H	 1.659829610	 1.699930824	 0.446042274
C	 1.431057086	 -0.413133436	 0.118991518
H	 2.489524528	 -0.587209167	 -0.017012615
C	 0.534127659	 -1.477638897	 0.042417552
H	 0.896961292	 -2.477388385	 -0.152011989
C	 -0.830326821	 -1.253604085	 0.220856111
H	 -1.525760009	 -2.079624353	 0.164116545
C	 -1.297587152	 0.034412611	 0.480242627
H	 -2.354396072	 0.208016117	 0.628560956
C	 -0.400445087	 1.099779211	 0.561601368
H	 -0.760455137	 2.093768799	 0.784756979
C	 -0.132474436	 0.559817267	 4.189248118
O	 -0.600664029	 1.609263890	 3.809987733
O	 0.270738142	 -0.417745999	 3.349962858
H	 0.102033321	 -0.091832414	 2.448557604
C	 0.077479864	 0.162830181	 5.620653909
H	 -0.232486287	 0.972166764	 6.270642796
H	 -0.498600864	 -0.733793793	 5.837605023
H	 1.125977285	 -0.073301905	 5.785672493
