20
0  1  0  1  0  1  12   8  7.34572  8.50399  7.11492  5.95664  7.01914  6.39104 17.70293 17.69732 17.66449  7.07886 -22.78011 56.09926 -13.19682 -13.04348
C	 0.048680417	 0.697823526	 -1.206975774
H	 0.051986195	 0.156115125	 -2.142706978
C	 0.081016210	 2.091969214	 -1.206776512
H	 0.112490301	 2.632031521	 -2.142989573
C	 0.065608979	 2.789580184	 0.000128372
H	 0.084172763	 3.870600766	 0.000000000
C	 0.021907309	 2.093223254	 1.207168195
H	 0.007268464	 2.634295794	 2.143214343
C	 -0.010798125	 0.699117475	 1.207314076
H	 -0.054610040	 0.158045489	 2.142355904
C	 0.000000000	 0.000000000	 0.000000000
H	 -0.047952789	 -1.079407937	 -0.000019595
C	 -2.606253098	 -1.548374216	 0.000000000
O	 -1.584687921	 -2.193095799	 0.071531957
O	 -2.628546425	 -0.199736725	 -0.057358499
H	 -1.700270663	 0.091164078	 -0.027471287
C	 -3.995684767	 -2.113076134	 -0.034546702
H	 -3.948076438	 -3.195080912	 -0.010269583
H	 -4.559767579	 -1.743439255	 0.818712052
H	 -4.505463164	 -1.777838574	 -0.934590090
