20
0  1  0  1  0  1  12   8 -3.65988 -3.47309 -3.74073 -3.92752 -3.78781 -3.86932 -1.32434 -1.33389 -1.33564 -3.56110 -2.77469  3.07587 -1.06017 -2.80212
C	 0.048680417	 0.697823526	 -1.206975774
H	 0.051986195	 0.156115125	 -2.142706978
C	 0.081016210	 2.091969214	 -1.206776512
H	 0.112490301	 2.632031521	 -2.142989573
C	 0.065608979	 2.789580184	 0.000128372
H	 0.084172763	 3.870600766	 0.000000000
C	 0.021907309	 2.093223254	 1.207168195
H	 0.007268464	 2.634295794	 2.143214343
C	 -0.010798125	 0.699117475	 1.207314076
H	 -0.054610040	 0.158045489	 2.142355904
C	 0.000000000	 0.000000000	 0.000000000
H	 -0.047952789	 -1.079407937	 -0.000019595
C	 -3.953975357	 0.000000000	 2.032241159
O	 -3.431208131	 -1.069127858	 1.813019349
O	 -3.415397438	 1.179100991	 1.655061163
H	 -2.578283268	 0.966890596	 1.206263851
C	 -5.257845563	 0.205669628	 2.745139877
H	 -5.678522569	 -0.755178161	 3.016050663
H	 -5.094220832	 0.807825961	 3.635929437
H	 -5.945038933	 0.750883070	 2.102610570
