20
0  1  0  1  0  1  12   8 -3.44782 -3.29044 -3.57961 -3.73699 -3.62338 -3.69062 -1.16476 -1.17331 -1.17702 -3.45048 -1.97266  2.00200 -0.77597 -2.70384
C	 -3.919615957	 0.697823526	 1.206975774
H	 -3.922921735	 0.156115125	 2.142706978
C	 -3.951951749	 2.091969214	 1.206776512
H	 -3.983425841	 2.632031521	 2.142989573
C	 -3.936544519	 2.789580184	 -0.000128372
H	 -3.955108303	 3.870600766	 0.000000000
C	 -3.892842849	 2.093223254	 -1.207168195
H	 -3.878204004	 2.634295794	 -2.143214343
C	 -3.860137414	 0.699117475	 -1.207314076
H	 -3.816325500	 0.158045489	 -2.142355904
C	 -3.870935540	 0.000000000	 -0.000000000
H	 -3.822982750	 -1.079407937	 0.000019595
C	 0.278398441	 0.000000000	 0.000000000
O	 -0.172836828	 -1.069127858	 -0.343118793
O	 -0.317537976	 1.179100991	 -0.277832161
H	 -1.124764935	 0.966890596	 -0.778395643
C	 1.547721945	 0.205669628	 0.772735362
H	 1.992676070	 -0.755178161	 1.001596944
H	 2.237355968	 0.807825961	 0.185637408
H	 1.334871928	 0.750883070	 1.689126932
