20
0  1  0  1  0  1  12   8 -3.88587 -3.68754 -3.87972 -4.07804 -3.92943 -4.01552 -1.65255 -1.66168 -1.66208 -3.82173 -3.27929  3.58040 -1.24042 -2.88241
C	 0.048680417	 0.697823526	 -1.206975774
H	 0.051986195	 0.156115125	 -2.142706978
C	 0.081016210	 2.091969214	 -1.206776512
H	 0.112490301	 2.632031521	 -2.142989573
C	 0.065608979	 2.789580184	 0.000128372
H	 0.084172763	 3.870600766	 0.000000000
C	 0.021907309	 2.093223254	 1.207168195
H	 0.007268464	 2.634295794	 2.143214343
C	 -0.010798125	 0.699117475	 1.207314076
H	 -0.054610040	 0.158045489	 2.142355904
C	 0.000000000	 0.000000000	 0.000000000
H	 -0.047952789	 -1.079407937	 -0.000019595
C	 -3.420707191	 -2.032241159	 0.000000000
O	 -2.399142014	 -2.676962742	 0.071531957
O	 -3.443000518	 -0.683603668	 -0.057358499
H	 -2.514724756	 -0.392702865	 -0.027471287
C	 -4.810138860	 -2.596943077	 -0.034546702
H	 -4.762530531	 -3.678947855	 -0.010269583
H	 -5.374221672	 -2.227306197	 0.818712052
H	 -5.319917257	 -2.261705517	 -0.934590090
