20
0  1  0  1  0  1  12   8 -4.43358 -4.18230 -4.55491 -4.80619 -4.62411 -4.72953 -1.52460 -1.54578 -1.54615 -4.35019 -2.98258  3.44500 -1.26880 -3.54382
C	 0.964080386	 0.875093309	 0.378013637
H	 1.659829610	 1.699930824	 0.446042274
C	 1.431057086	 -0.413133436	 0.118991518
H	 2.489524528	 -0.587209167	 -0.017012615
C	 0.534127659	 -1.477638897	 0.042417552
H	 0.896961292	 -2.477388385	 -0.152011989
C	 -0.830326821	 -1.253604085	 0.220856111
H	 -1.525760009	 -2.079624353	 0.164116545
C	 -1.297587152	 0.034412611	 0.480242627
H	 -2.354396072	 0.208016117	 0.628560956
C	 -0.400445087	 1.099779211	 0.561601368
H	 -0.760455137	 2.093768799	 0.784756979
C	 -0.104266998	 0.502979167	 4.571105670
O	 -0.572456592	 1.552425790	 4.191845285
O	 0.298945580	 -0.474584099	 3.731820410
H	 0.130240759	 -0.148670514	 2.830415156
C	 0.105687302	 0.105992081	 6.002511461
H	 -0.204278849	 0.915328664	 6.652500348
H	 -0.470393426	 -0.790631893	 6.219462575
H	 1.154184723	 -0.130140005	 6.167530045
