20
0  1  0  1  0  1  12   8 45.59323 47.93327 44.81653 42.47649 44.68361 43.37152 64.91474 64.90283 64.81726 40.96200 -57.71859 157.52020 -34.22107 -24.61854
C	 0.048680417	 0.697823526	 -1.206975774
H	 0.051986195	 0.156115125	 -2.142706978
C	 0.081016210	 2.091969214	 -1.206776512
H	 0.112490301	 2.632031521	 -2.142989573
C	 0.065608979	 2.789580184	 0.000128372
H	 0.084172763	 3.870600766	 0.000000000
C	 0.021907309	 2.093223254	 1.207168195
H	 0.007268464	 2.634295794	 2.143214343
C	 -0.010798125	 0.699117475	 1.207314076
H	 -0.054610040	 0.158045489	 2.142355904
C	 0.000000000	 0.000000000	 0.000000000
H	 -0.047952789	 -1.079407937	 -0.000019595
C	 -2.280471460	 -1.354827439	 0.000000000
O	 -1.258906283	 -1.999549022	 0.071531957
O	 -2.302764787	 -0.006189948	 -0.057358499
H	 -1.374489025	 0.284710855	 -0.027471287
C	 -3.669903129	 -1.919529357	 -0.034546702
H	 -3.622294800	 -3.001534135	 -0.010269583
H	 -4.233985941	 -1.549892478	 0.818712052
H	 -4.179681526	 -1.584291797	 -0.934590090
