20
0  1  0  1  0  1  12   8 -3.91846 -3.73546 -4.01088 -4.19388 -4.06506 -4.14046 -1.76456 -1.78031 -1.78252 -3.89854 -2.31647  1.90812 -0.82549 -2.66470
C	 0.964080386	 0.875093309	 0.378013637
H	 1.659829610	 1.699930824	 0.446042274
C	 1.431057086	 -0.413133436	 0.118991518
H	 2.489524528	 -0.587209167	 -0.017012615
C	 0.534127659	 -1.477638897	 0.042417552
H	 0.896961292	 -2.477388385	 -0.152011989
C	 -0.830326821	 -1.253604085	 0.220856111
H	 -1.525760009	 -2.079624353	 0.164116545
C	 -1.297587152	 0.034412611	 0.480242627
H	 -2.354396072	 0.208016117	 0.628560956
C	 -0.400445087	 1.099779211	 0.561601368
H	 -0.760455137	 2.093768799	 0.784756979
C	 -0.090163280	 0.474560118	 4.762034447
O	 -0.558352874	 1.524006741	 4.382774062
O	 0.313049298	 -0.503003148	 3.922749187
H	 0.144344477	 -0.177089563	 3.021343933
C	 0.119791020	 0.077573032	 6.193440238
H	 -0.190175131	 0.886909615	 6.843429125
H	 -0.456289708	 -0.819050942	 6.410391352
H	 1.168288441	 -0.158559054	 6.358458822
