20
0  1  0  1  0  1  12   8 -2.11245 -1.95537 -2.28901 -2.44609 -2.31613 -2.39020  0.54120  0.54578  0.54830 -2.34295 -1.80054  3.55225 -0.95183 -3.14283
C	 -3.919615957	 0.697823526	 1.206975774
H	 -3.922921735	 0.156115125	 2.142706978
C	 -3.951951749	 2.091969214	 1.206776512
H	 -3.983425841	 2.632031521	 2.142989573
C	 -3.936544519	 2.789580184	 -0.000128372
H	 -3.955108303	 3.870600766	 0.000000000
C	 -3.892842849	 2.093223254	 -1.207168195
H	 -3.878204004	 2.634295794	 -2.143214343
C	 -3.860137414	 0.699117475	 -1.207314076
H	 -3.816325500	 0.158045489	 -2.142355904
C	 -3.870935540	 0.000000000	 -0.000000000
H	 -3.822982750	 -1.079407937	 0.000019595
C	 0.200362303	 0.000000000	 0.000000000
O	 -0.821202874	 -0.644721583	 -0.071531957
O	 0.222655631	 1.348637490	 0.057358499
H	 -0.705620132	 1.639538294	 0.027471287
C	 1.589793972	 -0.564701918	 0.034546702
H	 1.542185643	 -1.646706696	 0.010269583
H	 2.153876784	 -0.195065039	 -0.818712052
H	 2.099572370	 -0.229464358	 0.934590090
