20
0  1  0  1  0  1  12   8 48.57045 50.92737 47.14524 44.78832 46.98553 45.68133 70.61257 70.60247 70.52202 45.33075 -52.73561 148.49141 -25.49652 -24.92852
C	 0.048680417	 0.697823526	 -1.206975774
H	 0.051986195	 0.156115125	 -2.142706978
C	 0.081016210	 2.091969214	 -1.206776512
H	 0.112490301	 2.632031521	 -2.142989573
C	 0.065608979	 2.789580184	 0.000128372
H	 0.084172763	 3.870600766	 0.000000000
C	 0.021907309	 2.093223254	 1.207168195
H	 0.007268464	 2.634295794	 2.143214343
C	 -0.010798125	 0.699117475	 1.207314076
H	 -0.054610040	 0.158045489	 2.142355904
C	 0.000000000	 0.000000000	 0.000000000
H	 -0.047952789	 -1.079407937	 -0.000019595
C	 -2.635983571	 0.000000000	 1.354827439
O	 -2.113216345	 -1.069127858	 1.135605629
O	 -2.097405652	 1.179100991	 0.977647443
H	 -1.260291482	 0.966890596	 0.528850131
C	 -3.939853777	 0.205669628	 2.067726158
H	 -4.360530783	 -0.755178161	 2.338636943
H	 -3.776229046	 0.807825961	 2.958515718
H	 -4.627047147	 0.750883070	 1.425196850
