20
0  1  0  1  0  1  12   8 -0.85590 -0.42549 -1.18570 -1.61612 -1.25137 -1.46199  5.00211  4.99263  4.99322 -0.36239 -5.28353 14.03341 -3.14255 -5.96973
C	 -3.919615957	 0.697823526	 1.206975774
H	 -3.922921735	 0.156115125	 2.142706978
C	 -3.951951749	 2.091969214	 1.206776512
H	 -3.983425841	 2.632031521	 2.142989573
C	 -3.936544519	 2.789580184	 -0.000128372
H	 -3.955108303	 3.870600766	 0.000000000
C	 -3.892842849	 2.093223254	 -1.207168195
H	 -3.878204004	 2.634295794	 -2.143214343
C	 -3.860137414	 0.699117475	 -1.207314076
H	 -3.816325500	 0.158045489	 -2.142355904
C	 -3.870935540	 0.000000000	 -0.000000000
H	 -3.822982750	 -1.079407937	 0.000019595
C	 0.098393451	 0.000000000	 0.000000000
O	 0.145956132	 -1.207062186	 -0.071531957
O	 -1.058414212	 0.693625333	 0.057358499
H	 -1.774479580	 0.035165343	 0.027471287
C	 1.282155492	 0.920932163	 0.034546702
H	 2.195394952	 0.338699752	 0.010269583
H	 1.244081971	 1.594260648	 -0.818712052
H	 1.246720448	 1.530031986	 0.934590090
