20
0  1  0  1  0  1  12   8  9.32400 10.63509  8.50042  7.18934  8.37193  7.69398 22.50116 22.50147 22.51506  8.95977 -20.11619 56.30089 -11.80932 -15.41562
C	 0.964080386	 0.875093309	 0.378013637
H	 1.659829610	 1.699930824	 0.446042274
C	 1.431057086	 -0.413133436	 0.118991518
H	 2.489524528	 -0.587209167	 -0.017012615
C	 0.534127659	 -1.477638897	 0.042417552
H	 0.896961292	 -2.477388385	 -0.152011989
C	 -0.830326821	 -1.253604085	 0.220856111
H	 -1.525760009	 -2.079624353	 0.164116545
C	 -1.297587152	 0.034412611	 0.480242627
H	 -2.354396072	 0.208016117	 0.628560956
C	 -0.400445087	 1.099779211	 0.561601368
H	 -0.760455137	 2.093768799	 0.784756979
C	 -0.174785591	 0.645074416	 3.616461789
O	 -0.642975185	 1.694521039	 3.237201404
O	 0.228426987	 -0.332488850	 2.777176529
H	 0.059722166	 -0.006575265	 1.875771275
C	 0.035168709	 0.248087330	 5.047867580
H	 -0.274797442	 1.057423913	 5.697856467
H	 -0.540912019	 -0.648536644	 5.264818694
H	 1.083666130	 0.011955244	 5.212886164
