20
0  1  0  1  0  1  12   8 -2.85986 -2.20989 -3.24699 -3.89696 -3.35012 -3.65828  4.31754  4.30583  4.32475 -2.56469 -8.34955 19.15537 -4.84937 -8.52113
C	 0.964080386	 0.875093309	 0.378013637
H	 1.659829610	 1.699930824	 0.446042274
C	 1.431057086	 -0.413133436	 0.118991518
H	 2.489524528	 -0.587209167	 -0.017012615
C	 0.534127659	 -1.477638897	 0.042417552
H	 0.896961292	 -2.477388385	 -0.152011989
C	 -0.830326821	 -1.253604085	 0.220856111
H	 -1.525760009	 -2.079624353	 0.164116545
C	 -1.297587152	 0.034412611	 0.480242627
H	 -2.354396072	 0.208016117	 0.628560956
C	 -0.400445087	 1.099779211	 0.561601368
H	 -0.760455137	 2.093768799	 0.784756979
C	 -0.146578154	 0.588236316	 3.998319341
O	 -0.614767748	 1.637682939	 3.619058956
O	 0.256634424	 -0.389326950	 3.159034081
H	 0.087929603	 -0.063413365	 2.257628827
C	 0.063376146	 0.191249230	 5.429725132
H	 -0.246590005	 1.000585813	 6.079714019
H	 -0.512704582	 -0.705374744	 5.646676246
H	 1.111873567	 -0.044882856	 5.594743716
