20
0  1  0  1  0  1  12   8 -3.63049 -3.25530 -3.81532 -4.19051 -3.88679 -4.06043  0.81757  0.80411  0.80872 -3.30546 -5.38307  9.82240 -2.60670 -5.13809
C	 0.048680417	 0.697823526	 -1.206975774
H	 0.051986195	 0.156115125	 -2.142706978
C	 0.081016210	 2.091969214	 -1.206776512
H	 0.112490301	 2.632031521	 -2.142989573
C	 0.065608979	 2.789580184	 0.000128372
H	 0.084172763	 3.870600766	 0.000000000
C	 0.021907309	 2.093223254	 1.207168195
H	 0.007268464	 2.634295794	 2.143214343
C	 -0.010798125	 0.699117475	 1.207314076
H	 -0.054610040	 0.158045489	 2.142355904
C	 0.000000000	 0.000000000	 0.000000000
H	 -0.047952789	 -1.079407937	 -0.000019595
C	 -3.560620729	 0.000000000	 -1.838694381
O	 -3.109385460	 -1.069127858	 -1.495575588
O	 -2.964684311	 1.179100991	 -1.560862219
H	 -2.157457353	 0.966890596	 -1.060298738
C	 -4.829944233	 0.205669628	 -2.611429743
H	 -5.274898358	 -0.755178161	 -2.840291325
H	 -5.519578256	 0.807825961	 -2.024331789
H	 -4.617094215	 0.750883070	 -3.527821313
