20
0  1  0  1  0  1  12   8 -3.14766 -3.01827 -3.21440 -3.34380 -3.24979 -3.30493 -1.46870 -1.47482 -1.47670 -3.11738 -2.03352  1.61297 -0.65053 -2.04630
C	 0.048680417	 0.697823526	 -1.206975774
H	 0.051986195	 0.156115125	 -2.142706978
C	 0.081016210	 2.091969214	 -1.206776512
H	 0.112490301	 2.632031521	 -2.142989573
C	 0.065608979	 2.789580184	 0.000128372
H	 0.084172763	 3.870600766	 0.000000000
C	 0.021907309	 2.093223254	 1.207168195
H	 0.007268464	 2.634295794	 2.143214343
C	 -0.010798125	 0.699117475	 1.207314076
H	 -0.054610040	 0.158045489	 2.142355904
C	 0.000000000	 0.000000000	 0.000000000
H	 -0.047952789	 -1.079407937	 -0.000019595
C	 -4.122824002	 0.000000000	 -2.129014547
O	 -3.671588733	 -1.069127858	 -1.785895754
O	 -3.526887584	 1.179100991	 -1.851182385
H	 -2.719660626	 0.966890596	 -1.350618904
C	 -5.392147506	 0.205669628	 -2.901749909
H	 -5.837101631	 -0.755178161	 -3.130611491
H	 -6.081781529	 0.807825961	 -2.314651955
H	 -5.179297488	 0.750883070	 -3.818141479
