20
0  1  0  1  0  1  12   8  9.26465 10.40675  8.60250  7.46040  8.48524  7.89333 21.01769 21.00265 21.00401  9.38768 -20.16985 53.63104 -10.78183 -13.29168
C	 0.048680417	 0.697823526	 -1.206975774
H	 0.051986195	 0.156115125	 -2.142706978
C	 0.081016210	 2.091969214	 -1.206776512
H	 0.112490301	 2.632031521	 -2.142989573
C	 0.065608979	 2.789580184	 0.000128372
H	 0.084172763	 3.870600766	 0.000000000
C	 0.021907309	 2.093223254	 1.207168195
H	 0.007268464	 2.634295794	 2.143214343
C	 -0.010798125	 0.699117475	 1.207314076
H	 -0.054610040	 0.158045489	 2.142355904
C	 0.000000000	 0.000000000	 0.000000000
H	 -0.047952789	 -1.079407937	 -0.000019595
C	 -2.998417456	 0.000000000	 -1.548374216
O	 -2.547182187	 -1.069127858	 -1.205255423
O	 -2.402481038	 1.179100991	 -1.270542054
H	 -1.595254080	 0.966890596	 -0.769978573
C	 -4.267740960	 0.205669628	 -2.321109578
H	 -4.712695085	 -0.755178161	 -2.549971160
H	 -4.957374983	 0.807825961	 -1.734011624
H	 -4.054890942	 0.750883070	 -3.237501148
