20
0  1  0  1  0  1  12   8 11.22233 12.37163 10.27631  9.12701 10.15579  9.57057 24.14200 24.13377 24.15638 12.09281 -17.58418 50.51848 -7.35733 -13.48416
C	 0.048680417	 0.697823526	 -1.206975774
H	 0.051986195	 0.156115125	 -2.142706978
C	 0.081016210	 2.091969214	 -1.206776512
H	 0.112490301	 2.632031521	 -2.142989573
C	 0.065608979	 2.789580184	 0.000128372
H	 0.084172763	 3.870600766	 0.000000000
C	 0.021907309	 2.093223254	 1.207168195
H	 0.007268464	 2.634295794	 2.143214343
C	 -0.010798125	 0.699117475	 1.207314076
H	 -0.054610040	 0.158045489	 2.142355904
C	 0.000000000	 0.000000000	 0.000000000
H	 -0.047952789	 -1.079407937	 -0.000019595
C	 -3.440250711	 1.548374216	 0.000000000
O	 -3.487813392	 0.341312030	 0.071531957
O	 -2.283443047	 2.241999549	 -0.057358499
H	 -1.567377680	 1.583539559	 -0.027471287
C	 -4.624012752	 2.469306379	 -0.034546702
H	 -5.537252212	 1.887073968	 -0.010269583
H	 -4.585939231	 3.142634864	 0.818712052
H	 -4.588577707	 3.078406201	 -0.934590090
