20
0  1  0  1  0  1  12   8 -2.20974 -1.67097 -2.49529 -3.03405 -2.58041 -2.83785  3.94420  3.92948  3.94093 -1.77340 -8.09650 17.56265 -4.20074 -7.03880
C	 0.048680417	 0.697823526	 -1.206975774
H	 0.051986195	 0.156115125	 -2.142706978
C	 0.081016210	 2.091969214	 -1.206776512
H	 0.112490301	 2.632031521	 -2.142989573
C	 0.065608979	 2.789580184	 0.000128372
H	 0.084172763	 3.870600766	 0.000000000
C	 0.021907309	 2.093223254	 1.207168195
H	 0.007268464	 2.634295794	 2.143214343
C	 -0.010798125	 0.699117475	 1.207314076
H	 -0.054610040	 0.158045489	 2.142355904
C	 0.000000000	 0.000000000	 0.000000000
H	 -0.047952789	 -1.079407937	 -0.000019595
C	 -3.373219638	 0.000000000	 -1.741920993
O	 -2.921984369	 -1.069127858	 -1.398802200
O	 -2.777283220	 1.179100991	 -1.464088831
H	 -1.970056262	 0.966890596	 -0.963525350
C	 -4.642543142	 0.205669628	 -2.514656355
H	 -5.087497267	 -0.755178161	 -2.743517937
H	 -5.332177165	 0.807825961	 -1.927558401
H	 -4.429693124	 0.750883070	 -3.431047925
