20
0  1  0  1  0  1  12   8 76.36369 78.78352 74.53258 72.11275 74.41443 73.03614 101.69837 101.69026 101.57737 70.63472 -46.40525 180.27563 -37.14407 -26.09159
C	 -3.919615957	 0.697823526	 1.206975774
H	 -3.922921735	 0.156115125	 2.142706978
C	 -3.951951749	 2.091969214	 1.206776512
H	 -3.983425841	 2.632031521	 2.142989573
C	 -3.936544519	 2.789580184	 -0.000128372
H	 -3.955108303	 3.870600766	 0.000000000
C	 -3.892842849	 2.093223254	 -1.207168195
H	 -3.878204004	 2.634295794	 -2.143214343
C	 -3.860137414	 0.699117475	 -1.207314076
H	 -3.816325500	 0.158045489	 -2.142355904
C	 -3.870935540	 0.000000000	 -0.000000000
H	 -3.822982750	 -1.079407937	 0.000019595
C	 -0.783679658	 0.000000000	 0.000000000
O	 -0.736116977	 -1.207062186	 -0.071531957
O	 -1.940487321	 0.693625333	 0.057358499
H	 -2.656552689	 0.035165343	 0.027471287
C	 0.400082383	 0.920932163	 0.034546702
H	 1.313321843	 0.338699752	 0.010269583
H	 0.362008862	 1.594260648	 -0.818712052
H	 0.364647339	 1.530031986	 0.934590090
