20
0  1  0  1  0  1  12   8 -4.27202 -3.95207 -4.50343 -4.82339 -4.57293 -4.71845 -0.04557 -0.05992 -0.06165 -4.17761 -3.92456  6.61884 -1.92081 -4.95109
C	 -3.919615957	 0.697823526	 1.206975774
H	 -3.922921735	 0.156115125	 2.142706978
C	 -3.951951749	 2.091969214	 1.206776512
H	 -3.983425841	 2.632031521	 2.142989573
C	 -3.936544519	 2.789580184	 -0.000128372
H	 -3.955108303	 3.870600766	 0.000000000
C	 -3.892842849	 2.093223254	 -1.207168195
H	 -3.878204004	 2.634295794	 -2.143214343
C	 -3.860137414	 0.699117475	 -1.207314076
H	 -3.816325500	 0.158045489	 -2.142355904
C	 -3.870935540	 0.000000000	 -0.000000000
H	 -3.822982750	 -1.079407937	 0.000019595
C	 -0.154663112	 0.000000000	 0.000000000
O	 -0.677430338	 -1.069127858	 0.219221810
O	 -0.693241030	 1.179100991	 0.377179996
H	 -1.530355201	 0.966890596	 0.825977308
C	 1.149207094	 0.205669628	 -0.712898719
H	 1.569884100	 -0.755178161	 -0.983809504
H	 0.985582363	 0.807825961	 -1.603688279
H	 1.836400465	 0.750883070	 -0.070369412
