21
0  1  0  1  0  1  12   9 -3.73904 -3.44040 -3.72085 -4.01950 -3.77788 -3.91849 -0.22390 -0.22872 -0.23090 -3.68589 -5.09451  7.63565 -1.83189 -4.39514
C	 0.003962469	 -0.000828789	 -0.697686457
H	 -0.203343957	 -0.920902249	 -1.226346825
C	 0.265930321	 1.178495764	 -1.393956758
H	 0.274842922	 1.177121858	 -2.475569557
C	 0.517172911	 2.359676186	 -0.696962714
H	 0.719923069	 3.274364818	 -1.237367707
C	 0.509115986	 2.361408863	 0.696962714
H	 0.705509943	 3.277420150	 1.237414089
C	 0.249882948	 1.181922072	 1.393934570
H	 0.245984068	 1.183183621	 2.475520850
C	 -0.003962469	 0.000828789	 0.697686457
H	 -0.217894706	 -0.917780358	 1.226163089
C	 -3.105299029	 -1.869921534	 1.551781318
O	 -2.179215324	 -2.497029919	 1.058375456
N	 -3.125787252	 -0.510798498	 1.605340137
H	 -2.369768760	 0.000000000	 1.179285606
H	 -3.912260842	 -0.012783048	 1.973162793
C	 -4.316554435	 -2.558446838	 2.137991909
H	 -4.890425948	 -2.997956650	 1.324787054
H	 -4.960172772	 -1.891216548	 2.705803401
H	 -3.977016460	 -3.367625217	 2.777831402
