21
0  1  0  1  0  1  12   9 -3.75886 -3.52124 -3.74173 -3.97936 -3.79172 -3.90069 -0.86694 -0.87010 -0.87126 -3.75253 -4.02597  5.27645 -1.35658 -3.64642
C	 0.003962469	 -0.000828789	 -0.697686457
H	 -0.203343957	 -0.920902249	 -1.226346825
C	 0.265930321	 1.178495764	 -1.393956758
H	 0.274842922	 1.177121858	 -2.475569557
C	 0.517172911	 2.359676186	 -0.696962714
H	 0.719923069	 3.274364818	 -1.237367707
C	 0.509115986	 2.361408863	 0.696962714
H	 0.705509943	 3.277420150	 1.237414089
C	 0.249882948	 1.181922072	 1.393934570
H	 0.245984068	 1.183183621	 2.475520850
C	 -0.003962469	 0.000828789	 0.697686457
H	 -0.217894706	 -0.917780358	 1.226163089
C	 -3.180891467	 -1.869921534	 -1.692093312
O	 -2.290547603	 -2.497029919	 -1.136784228
N	 -3.237518876	 -0.510798498	 -1.683057224
H	 -2.490535583	 0.000000000	 -1.241353269
H	 -3.949299435	 -0.012783048	 -2.180252005
C	 -4.294192433	 -2.558446838	 -2.447965969
H	 -3.876872127	 -2.997956650	 -3.351555705
H	 -5.107740778	 -1.891216548	 -2.721450053
H	 -4.678540701	 -3.367625217	 -1.833997710
