21
0  1  0  1  0  1  12   9 -4.31814 -3.98037 -4.38009 -4.71786 -4.43865 -4.59950 -0.21279 -0.21696 -0.21560 -4.20909 -5.90771  8.89217 -2.11540 -5.07815
C	 0.855560741	 0.358532444	 1.049754262
H	 1.513825504	 0.902679557	 1.712765824
C	 1.342897129	 -0.675378664	 0.251157396
H	 2.392883841	 -0.933344720	 0.281963052
C	 0.477806611	 -1.376701096	 -0.587815766
H	 0.856083995	 -2.178907525	 -1.206824282
C	 -0.874829828	 -1.042556145	 -0.630451783
H	 -1.545405726	 -1.585700140	 -1.282416138
C	 -1.362397293	 -0.007013909	 0.165846446
H	 -2.411571021	 0.253467233	 0.130778851
C	 -0.498444041	 0.693156951	 1.006991986
H	 -0.866110898	 1.490339889	 1.638036962
C	 0.097248254	 0.546094730	 4.718294728
O	 0.343737603	 1.589520974	 4.131055445
N	 -0.206798995	 -0.608911807	 4.067127383
H	 -0.181598683	 -0.615927137	 3.060490776
H	 -0.362575480	 -1.464404124	 4.562829094
C	 0.120092954	 0.451202900	 6.226712200
H	 1.151806755	 0.535415183	 6.561785994
H	 -0.301810957	 -0.475440096	 6.607737872
H	 -0.429371712	 1.295049210	 6.633482710
