21
0  1  0  1  0  1  12   9  6.72086  7.68808  6.48194  5.51472  6.38909  5.87098 16.86463 16.86058 16.83068  6.72900 -18.29088 45.79129 -8.99382 -11.77759
C	 0.003962469	 -0.000828789	 -0.697686457
H	 -0.203343957	 -0.920902249	 -1.226346825
C	 0.265930321	 1.178495764	 -1.393956758
H	 0.274842922	 1.177121858	 -2.475569557
C	 0.517172911	 2.359676186	 -0.696962714
H	 0.719923069	 3.274364818	 -1.237367707
C	 0.509115986	 2.361408863	 0.696962714
H	 0.705509943	 3.277420150	 1.237414089
C	 0.249882948	 1.181922072	 1.393934570
H	 0.245984068	 1.183183621	 2.475520850
C	 -0.003962469	 0.000828789	 0.697686457
H	 -0.217894706	 -0.917780358	 1.226163089
C	 -2.433730792	 -1.869921534	 -1.319687331
O	 -1.543386928	 -2.497029919	 -0.764378247
N	 -2.490358201	 -0.510798498	 -1.310651243
H	 -1.743374908	 0.000000000	 -0.868947288
H	 -3.202138760	 -0.012783048	 -1.807846024
C	 -3.547031758	 -2.558446838	 -2.075559988
H	 -3.129711452	 -2.997956650	 -2.979149724
H	 -4.360580103	 -1.891216548	 -2.349044072
H	 -3.931380026	 -3.367625217	 -1.461591729
