21
0  1  0  1  0  1  12   9 -3.90156 -3.69925 -3.95425 -4.15657 -3.99565 -4.08789 -1.17351 -1.17577 -1.17389 -3.91381 -3.47203  3.92927 -0.98600 -3.38506
C	 -2.486669008	 -0.000828789	 0.697686457
H	 -2.279362582	 -0.920902249	 1.226346825
C	 -2.748636860	 1.178495764	 1.393956758
H	 -2.757549461	 1.177121858	 2.475569557
C	 -2.999879450	 2.359676186	 0.696962714
H	 -3.202629608	 3.274364818	 1.237367707
C	 -2.991822525	 2.361408863	 -0.696962714
H	 -3.188216482	 3.277420150	 -1.237414089
C	 -2.732589487	 1.181922072	 -1.393934570
H	 -2.728690607	 1.183183621	 -2.475520850
C	 -2.478744070	 0.000828789	 -0.697686457
H	 -2.264811833	 -0.917780358	 -1.226163089
C	 0.941543897	 -1.869921534	 -0.372495712
O	 0.015460192	 -2.497029919	 0.120910151
N	 0.962032120	 -0.510798498	 -0.426054531
H	 0.206013628	 0.000000000	 0.000000000
H	 1.748505711	 -0.012783048	 -0.793877187
C	 2.152799304	 -2.558446838	 -0.958706303
H	 2.726670816	 -2.997956650	 -0.145501448
H	 2.796417640	 -1.891216548	 -1.526517794
H	 1.813261328	 -3.367625217	 -1.598545795
