21
0  1  0  1  0  1  12   9 -1.00059 -0.38616 -1.19755 -1.81198 -1.27705 -1.58527  6.27018  6.26536  6.26781 -0.67875 -11.09819 22.89107 -4.09026 -8.38136
C	 -2.486669008	 -0.000828789	 0.697686457
H	 -2.279362582	 -0.920902249	 1.226346825
C	 -2.748636860	 1.178495764	 1.393956758
H	 -2.757549461	 1.177121858	 2.475569557
C	 -2.999879450	 2.359676186	 0.696962714
H	 -3.202629608	 3.274364818	 1.237367707
C	 -2.991822525	 2.361408863	 -0.696962714
H	 -3.188216482	 3.277420150	 -1.237414089
C	 -2.732589487	 1.181922072	 -1.393934570
H	 -2.728690607	 1.183183621	 -2.475520850
C	 -2.478744070	 0.000828789	 -0.697686457
H	 -2.264811833	 -0.917780358	 -1.226163089
C	 0.264154498	 -1.869921534	 0.450740042
O	 -0.626189366	 -2.497029919	 -0.104569041
N	 0.320781907	 -0.510798498	 0.441703954
H	 -0.426201386	 0.000000000	 0.000000000
H	 1.032562467	 -0.012783048	 0.938898735
C	 1.377455465	 -2.558446838	 1.206612699
H	 0.960135158	 -2.997956650	 2.110202435
H	 2.191003809	 -1.891216548	 1.480096784
H	 1.761803732	 -3.367625217	 0.592644441
