21
0  1  0  1  0  1  12   9 -3.60914 -3.42088 -3.59347 -3.78172 -3.63594 -3.72028 -1.25189 -1.25338 -1.25351 -3.63782 -3.24541  3.64754 -1.02216 -3.01778
C	 0.003962469	 -0.000828789	 -0.697686457
H	 -0.203343957	 -0.920902249	 -1.226346825
C	 0.265930321	 1.178495764	 -1.393956758
H	 0.274842922	 1.177121858	 -2.475569557
C	 0.517172911	 2.359676186	 -0.696962714
H	 0.719923069	 3.274364818	 -1.237367707
C	 0.509115986	 2.361408863	 0.696962714
H	 0.705509943	 3.277420150	 1.237414089
C	 0.249882948	 1.181922072	 1.393934570
H	 0.245984068	 1.183183621	 2.475520850
C	 -0.003962469	 0.000828789	 0.697686457
H	 -0.217894706	 -0.917780358	 1.226163089
C	 -3.305418246	 -1.869921534	 -1.754160975
O	 -2.415074382	 -2.497029919	 -1.198851891
N	 -3.362045655	 -0.510798498	 -1.745124887
H	 -2.615062362	 0.000000000	 -1.303420932
H	 -4.073826214	 -0.012783048	 -2.242319668
C	 -4.418719212	 -2.558446838	 -2.510033632
H	 -4.001398906	 -2.997956650	 -3.413623368
H	 -5.232267557	 -1.891216548	 -2.783517716
H	 -4.803067480	 -3.367625217	 -1.896065373
