21
0  1  0  1  0  1  12   9  3.08853  3.91682  3.13916  2.31087  3.04306  2.61540 12.07601 12.06951 12.05917  3.27402 -13.02355 32.61924 -5.90582 -10.41585
C	 0.003962469	 -0.000828789	 -0.697686457
H	 -0.203343957	 -0.920902249	 -1.226346825
C	 0.265930321	 1.178495764	 -1.393956758
H	 0.274842922	 1.177121858	 -2.475569557
C	 0.517172911	 2.359676186	 -0.696962714
H	 0.719923069	 3.274364818	 -1.237367707
C	 0.509115986	 2.361408863	 0.696962714
H	 0.705509943	 3.277420150	 1.237414089
C	 0.249882948	 1.181922072	 1.393934570
H	 0.245984068	 1.183183621	 2.475520850
C	 -0.003962469	 0.000828789	 0.697686457
H	 -0.217894706	 -0.917780358	 1.226163089
C	 -1.486941674	 -2.899964717	 -0.045174385
O	 -0.265173697	 -2.918699036	 -0.009434544
N	 -2.205061008	 -1.745191006	 -0.009035199
H	 -1.708959365	 -0.868947288	 0.000000000
H	 -3.203195808	 -1.746405694	 -0.083728230
C	 -2.304957209	 -4.167286745	 -0.143128825
H	 -2.163477906	 -4.593105848	 -1.134320644
H	 -3.367155695	 -4.010096152	 0.026801183
H	 -1.922773165	 -4.880991395	 0.580757418
