21
0  1  0  1  0  1  12   9 -3.76785 -3.50647 -3.66205 -3.92344 -3.71696 -3.83666 -0.50155 -0.50601 -0.50678 -3.75461 -3.99025  5.67688 -1.37284 -4.06840
C	 0.003962469	 -0.000828789	 -0.697686457
H	 -0.203343957	 -0.920902249	 -1.226346825
C	 0.265930321	 1.178495764	 -1.393956758
H	 0.274842922	 1.177121858	 -2.475569557
C	 0.517172911	 2.359676186	 -0.696962714
H	 0.719923069	 3.274364818	 -1.237367707
C	 0.509115986	 2.361408863	 0.696962714
H	 0.705509943	 3.277420150	 1.237414089
C	 0.249882948	 1.181922072	 1.393934570
H	 0.245984068	 1.183183621	 2.475520850
C	 -0.003962469	 0.000828789	 0.697686457
H	 -0.217894706	 -0.917780358	 1.226163089
C	 -2.097284305	 -3.210303035	 -0.045174385
O	 -0.875516328	 -3.229037354	 -0.009434544
N	 -2.815403639	 -2.055529324	 -0.009035199
H	 -2.319301996	 -1.179285606	 0.000000000
H	 -3.813538439	 -2.056744012	 -0.083728230
C	 -2.915299840	 -4.477625063	 -0.143128825
H	 -2.773820537	 -4.903444166	 -1.134320644
H	 -3.977498326	 -4.320434470	 0.026801183
H	 -2.533115796	 -5.191329713	 0.580757418
