21
0  1  0  1  0  1  12   9 -0.88546 -0.28725 -0.95717 -1.55538 -1.03501 -1.33963  5.76021  5.75362  5.74466 -0.66120 -10.64245 22.49384 -4.61804 -7.89456
C	 0.003962469	 -0.000828789	 -0.697686457
H	 -0.203343957	 -0.920902249	 -1.226346825
C	 0.265930321	 1.178495764	 -1.393956758
H	 0.274842922	 1.177121858	 -2.475569557
C	 0.517172911	 2.359676186	 -0.696962714
H	 0.719923069	 3.274364818	 -1.237367707
C	 0.509115986	 2.361408863	 0.696962714
H	 0.705509943	 3.277420150	 1.237414089
C	 0.249882948	 1.181922072	 1.393934570
H	 0.245984068	 1.183183621	 2.475520850
C	 -0.003962469	 0.000828789	 0.697686457
H	 -0.217894706	 -0.917780358	 1.226163089
C	 -2.682784350	 -1.869921534	 -1.443822658
O	 -1.792440486	 -2.497029919	 -0.888513574
N	 -2.739411759	 -0.510798498	 -1.434786570
H	 -1.992428466	 0.000000000	 -0.993082615
H	 -3.451192318	 -0.012783048	 -1.931981351
C	 -3.796085316	 -2.558446838	 -2.199695315
H	 -3.378765010	 -2.997956650	 -3.103285051
H	 -4.609633661	 -1.891216548	 -2.473179399
H	 -4.180433584	 -3.367625217	 -1.585727056
