21
0  1  0  1  0  1  12   9 -3.93723 -3.52069 -4.02597 -4.44251 -4.09103 -4.29360  1.01812  1.01447  1.01596 -3.75558 -7.32147 12.39215 -2.79085 -6.03542
C	 0.855560741	 0.358532444	 1.049754262
H	 1.513825504	 0.902679557	 1.712765824
C	 1.342897129	 -0.675378664	 0.251157396
H	 2.392883841	 -0.933344720	 0.281963052
C	 0.477806611	 -1.376701096	 -0.587815766
H	 0.856083995	 -2.178907525	 -1.206824282
C	 -0.874829828	 -1.042556145	 -0.630451783
H	 -1.545405726	 -1.585700140	 -1.282416138
C	 -1.362397293	 -0.007013909	 0.165846446
H	 -2.411571021	 0.253467233	 0.130778851
C	 -0.498444041	 0.693156951	 1.006991986
H	 -0.866110898	 1.490339889	 1.638036962
C	 0.116203888	 0.606187985	 4.611341168
O	 0.362693237	 1.649614229	 4.024101885
N	 -0.187843361	 -0.548818552	 3.960173823
H	 -0.162643049	 -0.555833882	 2.953537216
H	 -0.343619846	 -1.404310869	 4.455875534
C	 0.139048588	 0.511296155	 6.119758640
H	 1.170762389	 0.595508438	 6.454832434
H	 -0.282855323	 -0.415346841	 6.500784312
H	 -0.410416078	 1.355142465	 6.526529150
