21
0  1  0  1  0  1  12   9  5.61605  6.40370  5.05334  4.26569  4.97078  4.56139 14.59410 14.59335 14.58918  5.81801 -14.07764 38.12192 -8.40700 -9.81927
C	 -2.486669008	 -0.000828789	 0.697686457
H	 -2.279362582	 -0.920902249	 1.226346825
C	 -2.748636860	 1.178495764	 1.393956758
H	 -2.757549461	 1.177121858	 2.475569557
C	 -2.999879450	 2.359676186	 0.696962714
H	 -3.202629608	 3.274364818	 1.237367707
C	 -2.991822525	 2.361408863	 -0.696962714
H	 -3.188216482	 3.277420150	 -1.237414089
C	 -2.732589487	 1.181922072	 -1.393934570
H	 -2.728690607	 1.183183621	 -2.475520850
C	 -2.478744070	 0.000828789	 -0.697686457
H	 -2.264811833	 -0.917780358	 -1.226163089
C	 0.868292795	 -1.207781675	 0.045174385
O	 0.273633203	 -2.275230940	 0.009434544
N	 0.227289093	 -0.008485233	 0.009035199
H	 -0.779611048	 0.000000000	 0.000000000
H	 0.727408444	 0.855317517	 0.083728230
C	 2.374833634	 -1.133020455	 0.143128825
H	 2.672864143	 -1.468454677	 1.134320644
H	 2.769801830	 -0.134534286	 -0.026801183
H	 2.801827969	 -1.820853870	 -0.580757418
