21
0  1  0  1  0  1  12   9  6.68964  7.65368  6.46188  5.49784  6.36930  5.85248 16.72308 16.71902 16.68819  6.66220 -18.19878 45.66516 -9.07272 -11.73147
C	 0.003962469	 -0.000828789	 -0.697686457
H	 -0.203343957	 -0.920902249	 -1.226346825
C	 0.265930321	 1.178495764	 -1.393956758
H	 0.274842922	 1.177121858	 -2.475569557
C	 0.517172911	 2.359676186	 -0.696962714
H	 0.719923069	 3.274364818	 -1.237367707
C	 0.509115986	 2.361408863	 0.696962714
H	 0.705509943	 3.277420150	 1.237414089
C	 0.249882948	 1.181922072	 1.393934570
H	 0.245984068	 1.183183621	 2.475520850
C	 -0.003962469	 0.000828789	 0.697686457
H	 -0.217894706	 -0.917780358	 1.226163089
C	 -2.481675671	 -1.869921534	 1.241443000
O	 -1.555591966	 -2.497029919	 0.748037138
N	 -2.502163894	 -0.510798498	 1.295001819
H	 -1.746145402	 0.000000000	 0.868947288
H	 -3.288637484	 -0.012783048	 1.662824475
C	 -3.692931077	 -2.558446838	 1.827653591
H	 -4.266802590	 -2.997956650	 1.014448736
H	 -4.336549414	 -1.891216548	 2.395465083
H	 -3.353393102	 -3.367625217	 2.467493084
