21
0  1  0  1  0  1  12   9  0.76945  1.27202  0.88829  0.38572  0.84038  0.56991  5.91273  5.91548  5.89742  0.62664 -10.20913 20.90944 -3.05097 -7.02270
C	 -2.486669008	 -0.000828789	 0.697686457
H	 -2.279362582	 -0.920902249	 1.226346825
C	 -2.748636860	 1.178495764	 1.393956758
H	 -2.757549461	 1.177121858	 2.475569557
C	 -2.999879450	 2.359676186	 0.696962714
H	 -3.202629608	 3.274364818	 1.237367707
C	 -2.991822525	 2.361408863	 -0.696962714
H	 -3.188216482	 3.277420150	 -1.237414089
C	 -2.732589487	 1.181922072	 -1.393934570
H	 -2.728690607	 1.183183621	 -2.475520850
C	 -2.478744070	 0.000828789	 -0.697686457
H	 -2.264811833	 -0.917780358	 -1.226163089
C	 0.384346021	 -2.031017429	 0.045174385
O	 -0.837421956	 -2.049751748	 0.009434544
N	 1.102465355	 -0.876243718	 0.009035199
H	 0.606363712	 0.000000000	 0.000000000
H	 2.100600156	 -0.877458405	 0.083728230
C	 1.202361556	 -3.298339457	 0.143128825
H	 1.060882253	 -3.724158560	 1.134320644
H	 2.264560042	 -3.141148864	 -0.026801183
H	 0.820177512	 -4.012044106	 -0.580757418
