21
0  1  0  1  0  1  12   9 -4.26223 -4.03977 -4.29785 -4.52031 -4.34444 -4.44506 -1.43566 -1.43992 -1.43742 -4.26532 -3.96796  4.55861 -1.24698 -3.60899
C	 0.855560741	 0.358532444	 1.049754262
H	 1.513825504	 0.902679557	 1.712765824
C	 1.342897129	 -0.675378664	 0.251157396
H	 2.392883841	 -0.933344720	 0.281963052
C	 0.477806611	 -1.376701096	 -0.587815766
H	 0.856083995	 -2.178907525	 -1.206824282
C	 -0.874829828	 -1.042556145	 -0.630451783
H	 -1.545405726	 -1.585700140	 -1.282416138
C	 -1.362397293	 -0.007013909	 0.165846446
H	 -2.411571021	 0.253467233	 0.130778851
C	 -0.498444041	 0.693156951	 1.006991986
H	 -0.866110898	 1.490339889	 1.638036962
C	 0.059336988	 0.425908222	 4.932201850
O	 0.305826337	 1.469334466	 4.344962567
N	 -0.244710261	 -0.729098315	 4.281034505
H	 -0.219509949	 -0.736113645	 3.274397898
H	 -0.400486746	 -1.584590632	 4.776736216
C	 0.082181688	 0.331016392	 6.440619322
H	 1.113895489	 0.415228675	 6.775693116
H	 -0.339722223	 -0.595626604	 6.821644994
H	 -0.467282978	 1.174862702	 6.847389832
