21
0  1  0  1  0  1  12   9 -2.16215 -1.97806 -2.12906 -2.31315 -2.15148 -2.24222  0.35264  0.36013  0.36659 -2.38004 -3.13661  5.43298 -1.23820 -3.43821
C	 -2.486669008	 -0.000828789	 0.697686457
H	 -2.279362582	 -0.920902249	 1.226346825
C	 -2.748636860	 1.178495764	 1.393956758
H	 -2.757549461	 1.177121858	 2.475569557
C	 -2.999879450	 2.359676186	 0.696962714
H	 -3.202629608	 3.274364818	 1.237367707
C	 -2.991822525	 2.361408863	 -0.696962714
H	 -3.188216482	 3.277420150	 -1.237414089
C	 -2.732589487	 1.181922072	 -1.393934570
H	 -2.728690607	 1.183183621	 -2.475520850
C	 -2.478744070	 0.000828789	 -0.697686457
H	 -2.264811833	 -0.917780358	 -1.226163089
C	 0.963546693	 -2.031017429	 0.045174385
O	 -0.258221284	 -2.049751748	 0.009434544
N	 1.681666027	 -0.876243718	 0.009035199
H	 1.185564384	 0.000000000	 0.000000000
H	 2.679800828	 -0.877458405	 0.083728230
C	 1.781562228	 -3.298339457	 0.143128825
H	 1.640082925	 -3.724158560	 1.134320644
H	 2.843760714	 -3.141148864	 -0.026801183
H	 1.399378184	 -4.012044106	 -0.580757418
