21
0  1  0  1  0  1  12   9 -3.72609 -3.42712 -3.71355 -4.01252 -3.77092 -3.91153 -0.17258 -0.17733 -0.17955 -3.67077 -5.05159  7.61160 -1.81740 -4.41338
C	 0.003962469	 -0.000828789	 -0.697686457
H	 -0.203343957	 -0.920902249	 -1.226346825
C	 0.265930321	 1.178495764	 -1.393956758
H	 0.274842922	 1.177121858	 -2.475569557
C	 0.517172911	 2.359676186	 -0.696962714
H	 0.719923069	 3.274364818	 -1.237367707
C	 0.509115986	 2.361408863	 0.696962714
H	 0.705509943	 3.277420150	 1.237414089
C	 0.249882948	 1.181922072	 1.393934570
H	 0.245984068	 1.183183621	 2.475520850
C	 -0.003962469	 0.000828789	 0.697686457
H	 -0.217894706	 -0.917780358	 1.226163089
C	 -3.056364688	 -1.869921534	 -1.630025649
O	 -2.166020824	 -2.497029919	 -1.074716565
N	 -3.112992097	 -0.510798498	 -1.620989561
H	 -2.366008804	 0.000000000	 -1.179285606
H	 -3.824772656	 -0.012783048	 -2.118184342
C	 -4.169665654	 -2.558446838	 -2.385898306
H	 -3.752345348	 -2.997956650	 -3.289488042
H	 -4.983213999	 -1.891216548	 -2.659382390
H	 -4.554013922	 -3.367625217	 -1.771930047
