21
0  1  0  1  0  1  12   9  6.28944  7.26820  5.92621  4.94745  5.82729  5.31408 16.97436 16.96971 16.95893  6.45133 -19.20117 45.75120 -7.93389 -12.16482
C	 -2.486669008	 -0.000828789	 0.697686457
H	 -2.279362582	 -0.920902249	 1.226346825
C	 -2.748636860	 1.178495764	 1.393956758
H	 -2.757549461	 1.177121858	 2.475569557
C	 -2.999879450	 2.359676186	 0.696962714
H	 -3.202629608	 3.274364818	 1.237367707
C	 -2.991822525	 2.361408863	 -0.696962714
H	 -3.188216482	 3.277420150	 -1.237414089
C	 -2.732589487	 1.181922072	 -1.393934570
H	 -2.728690607	 1.183183621	 -2.475520850
C	 -2.478744070	 0.000828789	 -0.697686457
H	 -2.264811833	 -0.917780358	 -1.226163089
C	 0.045303841	 -1.869921534	 -0.372495712
O	 -0.880779864	 -2.497029919	 0.120910151
N	 0.065792064	 -0.510798498	 -0.426054531
H	 -0.690226428	 0.000000000	 0.000000000
H	 0.852265655	 -0.012783048	 -0.793877187
C	 1.256559248	 -2.558446838	 -0.958706303
H	 1.830430760	 -2.997956650	 -0.145501448
H	 1.900177584	 -1.891216548	 -1.526517794
H	 0.917021272	 -3.367625217	 -1.598545795
