21
0  1  0  1  0  1  12   9 -3.56591 -3.17541 -3.66936 -4.05986 -3.73119 -3.92038  1.30408  1.29988  1.30183 -3.39384 -6.71276 11.37312 -2.27063 -5.78357
C	 -2.486669008	 -0.000828789	 0.697686457
H	 -2.279362582	 -0.920902249	 1.226346825
C	 -2.748636860	 1.178495764	 1.393956758
H	 -2.757549461	 1.177121858	 2.475569557
C	 -2.999879450	 2.359676186	 0.696962714
H	 -3.202629608	 3.274364818	 1.237367707
C	 -2.991822525	 2.361408863	 -0.696962714
H	 -3.188216482	 3.277420150	 -1.237414089
C	 -2.732589487	 1.181922072	 -1.393934570
H	 -2.728690607	 1.183183621	 -2.475520850
C	 -2.478744070	 0.000828789	 -0.697686457
H	 -2.264811833	 -0.917780358	 -1.226163089
C	 0.557441016	 -1.869921534	 -0.372495712
O	 -0.368642689	 -2.497029919	 0.120910151
N	 0.577929239	 -0.510798498	 -0.426054531
H	 -0.178089253	 0.000000000	 0.000000000
H	 1.364402830	 -0.012783048	 -0.793877187
C	 1.768696423	 -2.558446838	 -0.958706303
H	 2.342567935	 -2.997956650	 -0.145501448
H	 2.412314759	 -1.891216548	 -1.526517794
H	 1.429158447	 -3.367625217	 -1.598545795
