21
0  1  0  1  0  1  12   9 -3.56199 -3.17023 -3.66917 -4.06092 -3.73168 -3.92126  1.35023  1.34629  1.34810 -3.38252 -6.67593 11.32220 -2.22396 -5.80483
C	 -2.486669008	 -0.000828789	 0.697686457
H	 -2.279362582	 -0.920902249	 1.226346825
C	 -2.748636860	 1.178495764	 1.393956758
H	 -2.757549461	 1.177121858	 2.475569557
C	 -2.999879450	 2.359676186	 0.696962714
H	 -3.202629608	 3.274364818	 1.237367707
C	 -2.991822525	 2.361408863	 -0.696962714
H	 -3.188216482	 3.277420150	 -1.237414089
C	 -2.732589487	 1.181922072	 -1.393934570
H	 -2.728690607	 1.183183621	 -2.475520850
C	 -2.478744070	 0.000828789	 -0.697686457
H	 -2.264811833	 -0.917780358	 -1.226163089
C	 0.521217642	 -1.869921534	 0.450740042
O	 -0.369126222	 -2.497029919	 -0.104569041
N	 0.577845051	 -0.510798498	 0.441703954
H	 -0.169138242	 0.000000000	 0.000000000
H	 1.289625611	 -0.012783048	 0.938898735
C	 1.634518609	 -2.558446838	 1.206612699
H	 1.217198302	 -2.997956650	 2.110202435
H	 2.448066953	 -1.891216548	 1.480096784
H	 2.018866876	 -3.367625217	 0.592644441
