21
0  1  0  1  0  1  12   9 -2.04267 -1.52479 -1.93233 -2.45021 -2.00855 -2.26560  3.95171  3.94485  3.94078 -1.85090 -7.78870 16.27175 -3.20871 -7.12523
C	 0.003962469	 -0.000828789	 -0.697686457
H	 -0.203343957	 -0.920902249	 -1.226346825
C	 0.265930321	 1.178495764	 -1.393956758
H	 0.274842922	 1.177121858	 -2.475569557
C	 0.517172911	 2.359676186	 -0.696962714
H	 0.719923069	 3.274364818	 -1.237367707
C	 0.509115986	 2.361408863	 0.696962714
H	 0.705509943	 3.277420150	 1.237414089
C	 0.249882948	 1.181922072	 1.393934570
H	 0.245984068	 1.183183621	 2.475520850
C	 -0.003962469	 0.000828789	 0.697686457
H	 -0.217894706	 -0.917780358	 1.226163089
C	 -1.731078727	 -3.024100044	 -0.045174385
O	 -0.509310750	 -3.042834363	 -0.009434544
N	 -2.449198061	 -1.869326333	 -0.009035199
H	 -1.953096418	 -0.993082615	 0.000000000
H	 -3.447332861	 -1.870541021	 -0.083728230
C	 -2.549094262	 -4.291422072	 -0.143128825
H	 -2.407614959	 -4.717241175	 -1.134320644
H	 -3.611292748	 -4.134231479	 0.026801183
H	 -2.166910218	 -5.005126722	 0.580757418
