21
0  1  0  1  0  1  12   9 -4.27377 -4.01239 -4.47648 -4.73786 -4.54221 -4.65512 -0.75673 -0.76977 -0.76929 -4.31940 -3.23087  4.48466 -1.37907 -4.19412
C	 0.003962469	 -0.000828789	 -0.697686457
H	 -0.203343957	 -0.920902249	 -1.226346825
C	 0.265930321	 1.178495764	 -1.393956758
H	 0.274842922	 1.177121858	 -2.475569557
C	 0.517172911	 2.359676186	 -0.696962714
H	 0.719923069	 3.274364818	 -1.237367707
C	 0.509115986	 2.361408863	 0.696962714
H	 0.705509943	 3.277420150	 1.237414089
C	 0.249882948	 1.181922072	 1.393934570
H	 0.245984068	 1.183183621	 2.475520850
C	 -0.003962469	 0.000828789	 0.697686457
H	 -0.217894706	 -0.917780358	 1.226163089
C	 -3.930469572	 0.095639258	 -0.045174385
O	 -3.335809980	 -0.971810007	 -0.009434544
N	 -3.289465870	 1.294935700	 -0.009035199
H	 -2.282565729	 1.303420932	 0.000000000
H	 -3.789585220	 2.158738449	 -0.083728230
C	 -5.437010411	 0.170400478	 -0.143128825
H	 -5.735040920	 -0.165033744	 -1.134320644
H	 -5.831978607	 1.168886647	 0.026801183
H	 -5.864004746	 -0.517432938	 0.580757418
