21
0  1  0  1  0  1  12   9  6.42733  7.47842  5.61873  4.56764  5.49421  4.96253 18.15881 18.15485 18.16431  6.46215 -18.22052 46.62609 -8.67702 -13.26640
C	 0.003962469	 -0.000828789	 -0.697686457
H	 -0.203343957	 -0.920902249	 -1.226346825
C	 0.265930321	 1.178495764	 -1.393956758
H	 0.274842922	 1.177121858	 -2.475569557
C	 0.517172911	 2.359676186	 -0.696962714
H	 0.719923069	 3.274364818	 -1.237367707
C	 0.509115986	 2.361408863	 0.696962714
H	 0.705509943	 3.277420150	 1.237414089
C	 0.249882948	 1.181922072	 1.393934570
H	 0.245984068	 1.183183621	 2.475520850
C	 -0.003962469	 0.000828789	 0.697686457
H	 -0.217894706	 -0.917780358	 1.226163089
C	 -3.169614329	 -0.338834386	 -0.045174385
O	 -2.574954737	 -1.406283651	 -0.009434544
N	 -2.528610627	 0.860462056	 -0.009035199
H	 -1.521710486	 0.868947288	 0.000000000
H	 -3.028729977	 1.724264805	 -0.083728230
C	 -4.676155168	 -0.264073166	 -0.143128825
H	 -4.974185677	 -0.599507388	 -1.134320644
H	 -5.071123364	 0.734413003	 0.026801183
H	 -5.103149503	 -0.951906582	 0.580757418
