21
0  1  0  1  0  1  12   9 -3.52997 -3.36420 -3.45044 -3.61622 -3.49201 -3.56316 -1.34748 -1.34888 -1.34732 -3.57156 -2.72827  2.78114 -0.80943 -2.81500
C	 0.003962469	 -0.000828789	 -0.697686457
H	 -0.203343957	 -0.920902249	 -1.226346825
C	 0.265930321	 1.178495764	 -1.393956758
H	 0.274842922	 1.177121858	 -2.475569557
C	 0.517172911	 2.359676186	 -0.696962714
H	 0.719923069	 3.274364818	 -1.237367707
C	 0.509115986	 2.361408863	 0.696962714
H	 0.705509943	 3.277420150	 1.237414089
C	 0.249882948	 1.181922072	 1.393934570
H	 0.245984068	 1.183183621	 2.475520850
C	 -0.003962469	 0.000828789	 0.697686457
H	 -0.217894706	 -0.917780358	 1.226163089
C	 -2.341421357	 -3.334438361	 -0.045174385
O	 -1.119653380	 -3.353172680	 -0.009434544
N	 -3.059540691	 -2.179664650	 -0.009035199
H	 -2.563439048	 -1.303420932	 0.000000000
H	 -4.057675491	 -2.180879338	 -0.083728230
C	 -3.159436892	 -4.601760389	 -0.143128825
H	 -3.017957589	 -5.027579492	 -1.134320644
H	 -4.221635378	 -4.444569796	 0.026801183
H	 -2.777252848	 -5.315465039	 0.580757418
