21
0  1  0  1  0  1  12   9  6.35624  7.33905  5.99177  5.00896  5.89271  5.37739 17.14194 17.13724 17.12681  6.54754 -19.28522 45.86060 -7.80597 -12.22188
C	 -2.486669008	 -0.000828789	 0.697686457
H	 -2.279362582	 -0.920902249	 1.226346825
C	 -2.748636860	 1.178495764	 1.393956758
H	 -2.757549461	 1.177121858	 2.475569557
C	 -2.999879450	 2.359676186	 0.696962714
H	 -3.202629608	 3.274364818	 1.237367707
C	 -2.991822525	 2.361408863	 -0.696962714
H	 -3.188216482	 3.277420150	 -1.237414089
C	 -2.732589487	 1.181922072	 -1.393934570
H	 -2.728690607	 1.183183621	 -2.475520850
C	 -2.478744070	 0.000828789	 -0.697686457
H	 -2.264811833	 -0.917780358	 -1.226163089
C	 0.007091354	 -1.869921534	 0.450740042
O	 -0.883252510	 -2.497029919	 -0.104569041
N	 0.063718763	 -0.510798498	 0.441703954
H	 -0.683264530	 0.000000000	 0.000000000
H	 0.775499323	 -0.012783048	 0.938898735
C	 1.120392321	 -2.558446838	 1.206612699
H	 0.703072014	 -2.997956650	 2.110202435
H	 1.933940665	 -1.891216548	 1.480096784
H	 1.504740588	 -3.367625217	 0.592644441
