21
0  1  0  1  0  1  12   9 -1.76160 -1.69614 -1.77560 -1.84107 -1.78798 -1.81568 -0.51549 -0.51297 -0.50589 -1.89047 -0.92397  1.20848 -0.51972 -1.65527
C	 -2.486669008	 -0.000828789	 0.697686457
H	 -2.279362582	 -0.920902249	 1.226346825
C	 -2.748636860	 1.178495764	 1.393956758
H	 -2.757549461	 1.177121858	 2.475569557
C	 -2.999879450	 2.359676186	 0.696962714
H	 -3.202629608	 3.274364818	 1.237367707
C	 -2.991822525	 2.361408863	 -0.696962714
H	 -3.188216482	 3.277420150	 -1.237414089
C	 -2.732589487	 1.181922072	 -1.393934570
H	 -2.728690607	 1.183183621	 -2.475520850
C	 -2.478744070	 0.000828789	 -0.697686457
H	 -2.264811833	 -0.917780358	 -1.226163089
C	 1.542747365	 -2.031017429	 0.045174385
O	 0.320979388	 -2.049751748	 0.009434544
N	 2.260866699	 -0.876243718	 0.009035199
H	 1.764765056	 0.000000000	 0.000000000
H	 3.259001500	 -0.877458405	 0.083728230
C	 2.360762900	 -3.298339457	 0.143128825
H	 2.219283597	 -3.724158560	 1.134320644
H	 3.422961386	 -3.141148864	 -0.026801183
H	 1.978578856	 -4.012044106	 -0.580757418
