21
0  1  0  1  0  1  12   9  5.45911  6.45926  5.09403  4.09387  4.99756  4.46823 16.03868 16.03701 16.02070  5.52351 -18.98630 45.94217 -9.13704 -12.29531
C	 0.855560741	 0.358532444	 1.049754262
H	 1.513825504	 0.902679557	 1.712765824
C	 1.342897129	 -0.675378664	 0.251157396
H	 2.392883841	 -0.933344720	 0.281963052
C	 0.477806611	 -1.376701096	 -0.587815766
H	 0.856083995	 -2.178907525	 -1.206824282
C	 -0.874829828	 -1.042556145	 -0.630451783
H	 -1.545405726	 -1.585700140	 -1.282416138
C	 -1.362397293	 -0.007013909	 0.165846446
H	 -2.411571021	 0.253467233	 0.130778851
C	 -0.498444041	 0.693156951	 1.006991986
H	 -0.866110898	 1.490339889	 1.638036962
C	 0.192026421	 0.846561003	 4.183526925
O	 0.438515770	 1.889987247	 3.596287642
N	 -0.112020828	 -0.308445534	 3.532359580
H	 -0.086820516	 -0.315460864	 2.525722973
H	 -0.267797313	 -1.163937851	 4.028061291
C	 0.214871121	 0.751669173	 5.691944397
H	 1.246584922	 0.835881456	 6.027018191
H	 -0.207032790	 -0.174973823	 6.072970069
H	 -0.334593545	 1.595515483	 6.098714907
