21
0  1  0  1  0  1  12   9 -1.01928 -0.40723 -1.21316 -1.82520 -1.29200 -1.59917  6.18590  6.18101  6.18358 -0.71165 -11.10616 22.90681 -4.16825 -8.34406
C	 -2.486669008	 -0.000828789	 0.697686457
H	 -2.279362582	 -0.920902249	 1.226346825
C	 -2.748636860	 1.178495764	 1.393956758
H	 -2.757549461	 1.177121858	 2.475569557
C	 -2.999879450	 2.359676186	 0.696962714
H	 -3.202629608	 3.274364818	 1.237367707
C	 -2.991822525	 2.361408863	 -0.696962714
H	 -3.188216482	 3.277420150	 -1.237414089
C	 -2.732589487	 1.181922072	 -1.393934570
H	 -2.728690607	 1.183183621	 -2.475520850
C	 -2.478744070	 0.000828789	 -0.697686457
H	 -2.264811833	 -0.917780358	 -1.226163089
C	 0.301372428	 -1.869921534	 -0.372495712
O	 -0.624711277	 -2.497029919	 0.120910151
N	 0.321860651	 -0.510798498	 -0.426054531
H	 -0.434157841	 0.000000000	 0.000000000
H	 1.108334242	 -0.012783048	 -0.793877187
C	 1.512627835	 -2.558446838	 -0.958706303
H	 2.086499347	 -2.997956650	 -0.145501448
H	 2.156246171	 -1.891216548	 -1.526517794
H	 1.173089859	 -3.367625217	 -1.598545795
