21
0  1  0  1  0  1  12   9 -3.38240 -3.00651 -3.38346 -3.75936 -3.44805 -3.62945  0.99035  0.98430  0.98093 -3.26429 -6.40946 10.95069 -2.45753 -5.34798
C	 0.003962469	 -0.000828789	 -0.697686457
H	 -0.203343957	 -0.920902249	 -1.226346825
C	 0.265930321	 1.178495764	 -1.393956758
H	 0.274842922	 1.177121858	 -2.475569557
C	 0.517172911	 2.359676186	 -0.696962714
H	 0.719923069	 3.274364818	 -1.237367707
C	 0.509115986	 2.361408863	 0.696962714
H	 0.705509943	 3.277420150	 1.237414089
C	 0.249882948	 1.181922072	 1.393934570
H	 0.245984068	 1.183183621	 2.475520850
C	 -0.003962469	 0.000828789	 0.697686457
H	 -0.217894706	 -0.917780358	 1.226163089
C	 -2.931837909	 -1.869921534	 -1.567957985
O	 -2.041494045	 -2.497029919	 -1.012648901
N	 -2.988465318	 -0.510798498	 -1.558921897
H	 -2.241482025	 0.000000000	 -1.117217942
H	 -3.700245877	 -0.012783048	 -2.056116678
C	 -4.045138875	 -2.558446838	 -2.323830642
H	 -3.627818569	 -2.997956650	 -3.227420378
H	 -4.858687220	 -1.891216548	 -2.597314726
H	 -4.429487143	 -3.367625217	 -1.709862383
