21
0  1  0  1  0  1  12   9 -3.77336 -3.53603 -3.75147 -3.98880 -3.80112 -3.91009 -0.91276 -0.91600 -0.91711 -3.76817 -4.06788  5.29808 -1.36679 -3.63158
C	 0.003962469	 -0.000828789	 -0.697686457
H	 -0.203343957	 -0.920902249	 -1.226346825
C	 0.265930321	 1.178495764	 -1.393956758
H	 0.274842922	 1.177121858	 -2.475569557
C	 0.517172911	 2.359676186	 -0.696962714
H	 0.719923069	 3.274364818	 -1.237367707
C	 0.509115986	 2.361408863	 0.696962714
H	 0.705509943	 3.277420150	 1.237414089
C	 0.249882948	 1.181922072	 1.393934570
H	 0.245984068	 1.183183621	 2.475520850
C	 -0.003962469	 0.000828789	 0.697686457
H	 -0.217894706	 -0.917780358	 1.226163089
C	 -3.230023701	 -1.869921534	 1.613848981
O	 -2.303939996	 -2.497029919	 1.120443119
N	 -3.250511924	 -0.510798498	 1.667407800
H	 -2.494493432	 0.000000000	 1.241353269
H	 -4.036985514	 -0.012783048	 2.035230456
C	 -4.441279107	 -2.558446838	 2.200059572
H	 -5.015150620	 -2.997956650	 1.386854717
H	 -5.084897444	 -1.891216548	 2.767871064
H	 -4.101741132	 -3.367625217	 2.839899065
