21
0  1  0  1  0  1  12   9 -4.02539 -3.84489 -4.05614 -4.23664 -4.09678 -4.17635 -1.67514 -1.67859 -1.67554 -4.06230 -3.30180  3.25818 -0.96993 -3.04875
C	 0.855560741	 0.358532444	 1.049754262
H	 1.513825504	 0.902679557	 1.712765824
C	 1.342897129	 -0.675378664	 0.251157396
H	 2.392883841	 -0.933344720	 0.281963052
C	 0.477806611	 -1.376701096	 -0.587815766
H	 0.856083995	 -2.178907525	 -1.206824282
C	 -0.874829828	 -1.042556145	 -0.630451783
H	 -1.545405726	 -1.585700140	 -1.282416138
C	 -1.362397293	 -0.007013909	 0.165846446
H	 -2.411571021	 0.253467233	 0.130778851
C	 -0.498444041	 0.693156951	 1.006991986
H	 -0.866110898	 1.490339889	 1.638036962
C	 0.040381354	 0.365814967	 5.039155410
O	 0.286870703	 1.409241211	 4.451916127
N	 -0.263665895	 -0.789191570	 4.387988065
H	 -0.238465583	 -0.796206900	 3.381351458
H	 -0.419442380	 -1.644683887	 4.883689776
C	 0.063226054	 0.270923137	 6.547572882
H	 1.094939855	 0.355135420	 6.882646676
H	 -0.358677857	 -0.655719859	 6.928598554
H	 -0.486238612	 1.114769447	 6.954343392
