21
0  1  0  1  0  1  12   9 -4.29124 -3.90810 -4.57930 -4.96243 -4.66035 -4.83330  0.63080  0.61739  0.62141 -4.22925 -5.04491  8.83329 -2.22082 -5.79681
C	 0.003962469	 -0.000828789	 -0.697686457
H	 -0.203343957	 -0.920902249	 -1.226346825
C	 0.265930321	 1.178495764	 -1.393956758
H	 0.274842922	 1.177121858	 -2.475569557
C	 0.517172911	 2.359676186	 -0.696962714
H	 0.719923069	 3.274364818	 -1.237367707
C	 0.509115986	 2.361408863	 0.696962714
H	 0.705509943	 3.277420150	 1.237414089
C	 0.249882948	 1.181922072	 1.393934570
H	 0.245984068	 1.183183621	 2.475520850
C	 -0.003962469	 0.000828789	 0.697686457
H	 -0.217894706	 -0.917780358	 1.226163089
C	 -3.713082360	 -0.028496068	 -0.045174385
O	 -3.118422768	 -1.095945333	 -0.009434544
N	 -3.072078658	 1.170800374	 -0.009035199
H	 -2.065178517	 1.179285606	 0.000000000
H	 -3.572198008	 2.034603123	 -0.083728230
C	 -5.219623199	 0.046265152	 -0.143128825
H	 -5.517653708	 -0.289169070	 -1.134320644
H	 -5.614591395	 1.044751321	 0.026801183
H	 -5.646617534	 -0.641568264	 0.580757418
