15
0  1  0  1  0  1   3  12 18.21100 19.58532 17.84526 16.47093 17.68371 16.98302 30.53285 30.52216 30.52323 18.66985 -19.91184 61.69797 -9.65120 -13.46509
O	 -1.779388418	 -0.161088898	 -0.000000000
H	 -1.614584423	 -1.105810426	 -0.000000000
H	 -0.892087475	 0.210501427	 -0.000000000
C	 0.780147171	 -0.609914733	 -1.207556891
H	 0.896191595	 -1.137639594	 -2.144144625
C	 0.477942753	 0.750993631	 -1.207895407
H	 0.356964231	 1.278167803	 -2.144054074
C	 0.327289279	 1.431867868	 -0.000000000
H	 0.091465028	 2.487139215	 0.000000000
C	 0.477942754	 0.750993631	 1.207895407
H	 0.356964231	 1.278167803	 2.144054074
C	 0.780147171	 -0.609914733	 1.207556891
H	 0.896191595	 -1.137639594	 2.144144625
C	 0.931648311	 -1.289981342	 0.000000000
H	 1.168485730	 -2.345213690	 -0.000000000
