15
0  1  0  1  0  1   3  12 16.22396 17.47437 15.75475 14.50434 15.59798 14.97626 28.12520 28.11525 28.14025 17.31817 -16.11058 53.38637 -7.42240 -12.53521
O	 -0.987353999	 -0.060615141	 0.000000000
H	 -0.559321594	 0.797549985	 0.000000000
H	 -1.922028108	 0.166907700	 -0.000000000
C	 -3.452040544	 0.693179625	 -1.207556891
H	 -3.508495189	 1.230555387	 -2.144144625
C	 -3.303525934	 -0.692945368	 -1.207895407
H	 -3.242106557	 -1.230324257	 -2.144054074
C	 -3.229761419	 -1.386375244	 -0.000000000
H	 -3.113120141	 -2.461366176	 -0.000000000
C	 -3.303525935	 -0.692945368	 1.207895407
H	 -3.242106557	 -1.230324257	 2.144054074
C	 -3.452040544	 0.693179625	 1.207556891
H	 -3.508495189	 1.230555387	 2.144144625
C	 -3.526737523	 1.385901466	 0.000000000
H	 -3.644389997	 2.460966658	 0.000000000
