15
0  1  0  1  0  1   3  12  1.87575  2.67607  1.83976  1.03944  1.69953  1.31695  9.18989  9.17405  9.17175  2.60784 -10.47506 25.44528 -4.14468 -8.21769
O	 -0.631020394	 -0.005814964	 0.000000000
H	 -1.160196991	 0.793954535	 0.000000000
H	 -1.295398009	 -0.701505066	 -0.000000000
C	 -3.452040544	 0.693179625	 -1.207556891
H	 -3.508495189	 1.230555387	 -2.144144625
C	 -3.303525934	 -0.692945368	 -1.207895407
H	 -3.242106557	 -1.230324257	 -2.144054074
C	 -3.229761419	 -1.386375244	 -0.000000000
H	 -3.113120141	 -2.461366176	 -0.000000000
C	 -3.303525935	 -0.692945368	 1.207895407
H	 -3.242106557	 -1.230324257	 2.144054074
C	 -3.452040544	 0.693179625	 1.207556891
H	 -3.508495189	 1.230555387	 2.144144625
C	 -3.526737523	 1.385901466	 0.000000000
H	 -3.644389997	 2.460966658	 0.000000000
