15
0  1  0  1  0  1   3  12 17.53420 18.95683 17.28648 15.86385 17.12167 16.39270 30.17377 30.15714 30.15289 17.94056 -23.02969 64.50603 -9.52787 -14.00792
O	 -0.966082313	 -0.005810867	 0.000000000
H	 -1.495258910	 0.793958632	 0.000000000
H	 -1.630459928	 -0.701500969	 -0.000000000
C	 -3.452040544	 0.693179625	 -1.207556891
H	 -3.508495189	 1.230555387	 -2.144144625
C	 -3.303525934	 -0.692945368	 -1.207895407
H	 -3.242106557	 -1.230324257	 -2.144054074
C	 -3.229761419	 -1.386375244	 -0.000000000
H	 -3.113120141	 -2.461366176	 -0.000000000
C	 -3.303525935	 -0.692945368	 1.207895407
H	 -3.242106557	 -1.230324257	 2.144054074
C	 -3.452040544	 0.693179625	 1.207556891
H	 -3.508495189	 1.230555387	 2.144144625
C	 -3.526737523	 1.385901466	 0.000000000
H	 -3.644389997	 2.460966658	 0.000000000
