15
0  1  0  1  0  1   3  12  2.00621  2.69956  1.76708  1.07373  1.64298  1.32371  9.01244  8.99832  9.02162  3.00832 -7.19984 21.38062 -3.67868 -7.49378
O	 -0.649879206	 -0.060657875	 0.000000000
H	 -0.221846801	 0.797507251	 0.000000000
H	 -1.584553315	 0.166864966	 -0.000000000
C	 -3.452040544	 0.693179625	 -1.207556891
H	 -3.508495189	 1.230555387	 -2.144144625
C	 -3.303525934	 -0.692945368	 -1.207895407
H	 -3.242106557	 -1.230324257	 -2.144054074
C	 -3.229761419	 -1.386375244	 -0.000000000
H	 -3.113120141	 -2.461366176	 -0.000000000
C	 -3.303525935	 -0.692945368	 1.207895407
H	 -3.242106557	 -1.230324257	 2.144054074
C	 -3.452040544	 0.693179625	 1.207556891
H	 -3.508495189	 1.230555387	 2.144144625
C	 -3.526737523	 1.385901466	 0.000000000
H	 -3.644389997	 2.460966658	 0.000000000
