15
0  1  0  1  0  1   3  12 -2.07783 -1.72599 -2.10320 -2.45504 -2.18355 -2.33954  1.34475  1.33695  1.33925 -1.62847 -4.86516  9.00564 -1.90845 -3.86050
O	 -3.078611922	 -0.038405149	 1.547461381
H	 -3.028039827	 0.918803853	 1.518263568
H	 -2.279086061	 -0.308701643	 1.085854910
C	 0.074216974	 0.693179625	 1.207556891
H	 0.130671619	 1.230555387	 2.144144625
C	 -0.074297636	 -0.692945368	 1.207895407
H	 -0.135717014	 -1.230324257	 2.144054074
C	 -0.148062151	 -1.386375244	 0.000000000
H	 -0.264703429	 -2.461366176	 0.000000000
C	 -0.074297635	 -0.692945368	 -1.207895407
H	 -0.135717014	 -1.230324257	 -2.144054074
C	 0.074216974	 0.693179625	 -1.207556891
H	 0.130671619	 1.230555387	 -2.144144625
C	 0.148913952	 1.385901466	 -0.000000000
H	 0.266566426	 2.460966658	 -0.000000000
