15
0  1  0  1  0  1   3  12 -2.36734 -2.23329 -2.37430 -2.50835 -2.41970 -2.47140 -1.03916 -1.03920 -1.04027 -2.32921 -1.47066  1.19558 -0.44910 -1.60502
O	 0.362936350	 -0.038459223	 0.027479412
H	 0.312364254	 0.918749779	 -0.001718401
H	 -0.436589512	 -0.308755717	 -0.434127059
C	 -3.452040544	 0.693179625	 -1.207556891
H	 -3.508495189	 1.230555387	 -2.144144625
C	 -3.303525934	 -0.692945368	 -1.207895407
H	 -3.242106557	 -1.230324257	 -2.144054074
C	 -3.229761419	 -1.386375244	 -0.000000000
H	 -3.113120141	 -2.461366176	 -0.000000000
C	 -3.303525935	 -0.692945368	 1.207895407
H	 -3.242106557	 -1.230324257	 2.144054074
C	 -3.452040544	 0.693179625	 1.207556891
H	 -3.508495189	 1.230555387	 2.144144625
C	 -3.526737523	 1.385901466	 0.000000000
H	 -3.644389997	 2.460966658	 0.000000000
