15
0  1  0  1  0  1   3  12 -3.17532 -2.83346 -3.19324 -3.53511 -3.28805 -3.43150 -0.04239 -0.05841 -0.05988 -2.81540 -3.55608  5.80242 -1.45477 -3.60697
O	 -2.618678011	 -0.255228167	 -0.000000000
H	 -2.453874016	 -1.199949695	 -0.000000000
H	 -1.731377068	 0.116362158	 -0.000000000
C	 0.780147171	 -0.609914733	 -1.207556891
H	 0.896191595	 -1.137639594	 -2.144144625
C	 0.477942753	 0.750993631	 -1.207895407
H	 0.356964231	 1.278167803	 -2.144054074
C	 0.327289279	 1.431867868	 -0.000000000
H	 0.091465028	 2.487139215	 0.000000000
C	 0.477942754	 0.750993631	 1.207895407
H	 0.356964231	 1.278167803	 2.144054074
C	 0.780147171	 -0.609914733	 1.207556891
H	 0.896191595	 -1.137639594	 2.144144625
C	 0.931648311	 -1.289981342	 0.000000000
H	 1.168485730	 -2.345213690	 -0.000000000
