15
0  1  0  1  0  1   3  12 16.72537 18.04973 16.37681 15.05246 16.22605 15.54410 28.78278 28.77187 28.76366 16.89928 -20.81002 60.74300 -9.75963 -13.27408
O	 -0.980166724	 -0.038351074	 -0.027402137
H	 -1.030738820	 0.918857928	 0.001795677
H	 -1.779692586	 -0.308647568	 0.434204335
C	 -3.452040544	 0.693179625	 -1.207556891
H	 -3.508495189	 1.230555387	 -2.144144625
C	 -3.303525934	 -0.692945368	 -1.207895407
H	 -3.242106557	 -1.230324257	 -2.144054074
C	 -3.229761419	 -1.386375244	 -0.000000000
H	 -3.113120141	 -2.461366176	 -0.000000000
C	 -3.303525935	 -0.692945368	 1.207895407
H	 -3.242106557	 -1.230324257	 2.144054074
C	 -3.452040544	 0.693179625	 1.207556891
H	 -3.508495189	 1.230555387	 2.144144625
C	 -3.526737523	 1.385901466	 0.000000000
H	 -3.644389997	 2.460966658	 0.000000000
