15
0  1  0  1  0  1   3  12 -2.80442 -2.61478 -2.83671 -3.02635 -2.89756 -2.97501 -1.04092 -1.05182 -1.05892 -2.67182 -1.79837  1.73525 -0.59205 -2.01665
O	 0.193807778	 -0.060764710	 0.000000000
H	 0.621840183	 0.797400416	 0.000000000
H	 -0.740866331	 0.166758131	 -0.000000000
C	 -3.452040544	 0.693179625	 -1.207556891
H	 -3.508495189	 1.230555387	 -2.144144625
C	 -3.303525934	 -0.692945368	 -1.207895407
H	 -3.242106557	 -1.230324257	 -2.144054074
C	 -3.229761419	 -1.386375244	 -0.000000000
H	 -3.113120141	 -2.461366176	 -0.000000000
C	 -3.303525935	 -0.692945368	 1.207895407
H	 -3.242106557	 -1.230324257	 2.144054074
C	 -3.452040544	 0.693179625	 1.207556891
H	 -3.508495189	 1.230555387	 2.144144625
C	 -3.526737523	 1.385901466	 0.000000000
H	 -3.644389997	 2.460966658	 0.000000000
