15
0  1  0  1  0  1   3  12 -2.63775 -2.46112 -2.66517 -2.84179 -2.71495 -2.78827 -0.83527 -0.84031 -0.84028 -2.42097 -2.48838  3.17413 -1.00835 -2.09837
O	 -3.539157578	 -1.749655128	 0.000000000
H	 -3.967189984	 -0.891490002	 0.000000000
H	 -2.604483470	 -1.522132287	 0.000000000
C	 0.074216974	 0.693179625	 1.207556891
H	 0.130671619	 1.230555387	 2.144144625
C	 -0.074297636	 -0.692945368	 1.207895407
H	 -0.135717014	 -1.230324257	 2.144054074
C	 -0.148062151	 -1.386375244	 0.000000000
H	 -0.264703429	 -2.461366176	 0.000000000
C	 -0.074297635	 -0.692945368	 -1.207895407
H	 -0.135717014	 -1.230324257	 -2.144054074
C	 0.074216974	 0.693179625	 -1.207556891
H	 0.130671619	 1.230555387	 -2.144144625
C	 0.148913952	 1.385901466	 -0.000000000
H	 0.266566426	 2.460966658	 -0.000000000
