15
0  1  0  1  0  1   3  12 -2.94044 -2.74596 -2.91688 -3.11136 -2.97857 -3.05594 -1.17836 -1.17661 -1.17803 -2.86279 -2.21626  2.08395 -0.57817 -2.15231
O	 0.206634403	 -0.005825204	 0.000000000
H	 -0.322542194	 0.793944295	 0.000000000
H	 -0.457743212	 -0.701515306	 -0.000000000
C	 -3.452040544	 0.693179625	 -1.207556891
H	 -3.508495189	 1.230555387	 -2.144144625
C	 -3.303525934	 -0.692945368	 -1.207895407
H	 -3.242106557	 -1.230324257	 -2.144054074
C	 -3.229761419	 -1.386375244	 -0.000000000
H	 -3.113120141	 -2.461366176	 -0.000000000
C	 -3.303525935	 -0.692945368	 1.207895407
H	 -3.242106557	 -1.230324257	 2.144054074
C	 -3.452040544	 0.693179625	 1.207556891
H	 -3.508495189	 1.230555387	 2.144144625
C	 -3.526737523	 1.385901466	 0.000000000
H	 -3.644389997	 2.460966658	 0.000000000
