15
0  1  0  1  0  1   3  12 -2.80565 -2.56667 -2.80954 -3.04852 -2.88102 -2.97951 -0.46461 -0.47196 -0.47589 -2.65384 -2.37922  3.36534 -0.93459 -2.70538
O	 0.027160623	 -0.038432186	 0.027460093
H	 -0.023411473	 0.918776816	 -0.001737720
H	 -0.772365239	 -0.308728680	 -0.434146378
C	 -3.452040544	 0.693179625	 -1.207556891
H	 -3.508495189	 1.230555387	 -2.144144625
C	 -3.303525934	 -0.692945368	 -1.207895407
H	 -3.242106557	 -1.230324257	 -2.144054074
C	 -3.229761419	 -1.386375244	 -0.000000000
H	 -3.113120141	 -2.461366176	 -0.000000000
C	 -3.303525935	 -0.692945368	 1.207895407
H	 -3.242106557	 -1.230324257	 2.144054074
C	 -3.452040544	 0.693179625	 1.207556891
H	 -3.508495189	 1.230555387	 2.144144625
C	 -3.526737523	 1.385901466	 0.000000000
H	 -3.644389997	 2.460966658	 0.000000000
