15
0  1  0  1  0  1   3  12  0.99731  1.61544  1.06723  0.44910  0.94740  0.65679  6.79539  6.77470  6.76871  1.78175 -7.75975 18.01650 -2.21494 -6.26006
O	 -2.697168112	 1.345314464	 0.000000000
H	 -2.167991516	 2.145083964	 0.000000000
H	 -2.032790498	 0.649624362	 0.000000000
C	 0.074216974	 0.693179625	 1.207556891
H	 0.130671619	 1.230555387	 2.144144625
C	 -0.074297636	 -0.692945368	 1.207895407
H	 -0.135717014	 -1.230324257	 2.144054074
C	 -0.148062151	 -1.386375244	 0.000000000
H	 -0.264703429	 -2.461366176	 0.000000000
C	 -0.074297635	 -0.692945368	 -1.207895407
H	 -0.135717014	 -1.230324257	 -2.144054074
C	 0.074216974	 0.693179625	 -1.207556891
H	 0.130671619	 1.230555387	 -2.144144625
C	 0.148913952	 1.385901466	 -0.000000000
H	 0.266566426	 2.460966658	 -0.000000000
