15
0  1  0  1  0  1   3  12 -3.09363 -2.89345 -3.09824 -3.29842 -3.16357 -3.24249 -1.33013 -1.33881 -1.34109 -2.96402 -2.22558  2.08475 -0.69132 -2.13186
O	 -2.954393847	 -0.292883875	 -0.000000000
H	 -2.789589852	 -1.237605403	 -0.000000000
H	 -2.067092904	 0.078706450	 -0.000000000
C	 0.780147171	 -0.609914733	 -1.207556891
H	 0.896191595	 -1.137639594	 -2.144144625
C	 0.477942753	 0.750993631	 -1.207895407
H	 0.356964231	 1.278167803	 -2.144054074
C	 0.327289279	 1.431867868	 -0.000000000
H	 0.091465028	 2.487139215	 0.000000000
C	 0.477942754	 0.750993631	 1.207895407
H	 0.356964231	 1.278167803	 2.144054074
C	 0.780147171	 -0.609914733	 1.207556891
H	 0.896191595	 -1.137639594	 2.144144625
C	 0.931648311	 -1.289981342	 0.000000000
H	 1.168485730	 -2.345213690	 -0.000000000
