15
0  1  0  1  0  1   3  12 -2.11382 -1.76693 -2.03789 -2.38478 -2.12405 -2.27863  1.06149  1.04963  1.04052 -1.76356 -3.67746  6.44787 -1.01564 -3.51832
O	 -3.026025648	 1.514201547	 0.000000000
H	 -2.496849052	 2.313971047	 0.000000000
H	 -2.361648034	 0.818511445	 0.000000000
C	 0.074216974	 0.693179625	 1.207556891
H	 0.130671619	 1.230555387	 2.144144625
C	 -0.074297636	 -0.692945368	 1.207895407
H	 -0.135717014	 -1.230324257	 2.144054074
C	 -0.148062151	 -1.386375244	 0.000000000
H	 -0.264703429	 -2.461366176	 0.000000000
C	 -0.074297635	 -0.692945368	 -1.207895407
H	 -0.135717014	 -1.230324257	 -2.144054074
C	 0.074216974	 0.693179625	 -1.207556891
H	 0.130671619	 1.230555387	 -2.144144625
C	 0.148913952	 1.385901466	 -0.000000000
H	 0.266566426	 2.460966658	 -0.000000000
