15
0  1  0  1  0  1   3  12 -2.65172 -2.46106 -2.65313 -2.84379 -2.70836 -2.78677 -0.82476 -0.82872 -0.82900 -2.47757 -2.59014  3.08223 -0.81641 -2.15326
O	 -3.415432478	 -0.038432186	 1.716371878
H	 -3.364860383	 0.918776816	 1.687174065
H	 -2.615906617	 -0.308728680	 1.254765407
C	 0.074216974	 0.693179625	 1.207556891
H	 0.130671619	 1.230555387	 2.144144625
C	 -0.074297636	 -0.692945368	 1.207895407
H	 -0.135717014	 -1.230324257	 2.144054074
C	 -0.148062151	 -1.386375244	 0.000000000
H	 -0.264703429	 -2.461366176	 0.000000000
C	 -0.074297635	 -0.692945368	 -1.207895407
H	 -0.135717014	 -1.230324257	 -2.144054074
C	 0.074216974	 0.693179625	 -1.207556891
H	 0.130671619	 1.230555387	 -2.144144625
C	 0.148913952	 1.385901466	 -0.000000000
H	 0.266566426	 2.460966658	 -0.000000000
