15
0  1  0  1  0  1   3  12 -2.60877 -2.34927 -2.61590 -2.87539 -2.68345 -2.79444 -0.10269 -0.10871 -0.10877 -2.31592 -3.48782  5.29334 -1.24114 -2.88030
O	 -3.247022200	 -0.038418667	 1.631916629
H	 -3.196450105	 0.918790335	 1.602718816
H	 -2.447496339	 -0.308715161	 1.170310158
C	 0.074216974	 0.693179625	 1.207556891
H	 0.130671619	 1.230555387	 2.144144625
C	 -0.074297636	 -0.692945368	 1.207895407
H	 -0.135717014	 -1.230324257	 2.144054074
C	 -0.148062151	 -1.386375244	 0.000000000
H	 -0.264703429	 -2.461366176	 0.000000000
C	 -0.074297635	 -0.692945368	 -1.207895407
H	 -0.135717014	 -1.230324257	 -2.144054074
C	 0.074216974	 0.693179625	 -1.207556891
H	 0.130671619	 1.230555387	 -2.144144625
C	 0.148913952	 1.385901466	 -0.000000000
H	 0.266566426	 2.460966658	 -0.000000000
