15
0  1  0  1  0  1   3  12 -2.64715 -2.50432 -2.63710 -2.77994 -2.68422 -2.73883 -1.33631 -1.32989 -1.32818 -2.61759 -1.79251  1.23783 -0.40559 -1.65731
O	 0.374165363	 -0.005827252	 0.000000000
H	 -0.155011234	 0.793942247	 0.000000000
H	 -0.290212252	 -0.701517354	 -0.000000000
C	 -3.452040544	 0.693179625	 -1.207556891
H	 -3.508495189	 1.230555387	 -2.144144625
C	 -3.303525934	 -0.692945368	 -1.207895407
H	 -3.242106557	 -1.230324257	 -2.144054074
C	 -3.229761419	 -1.386375244	 -0.000000000
H	 -3.113120141	 -2.461366176	 -0.000000000
C	 -3.303525935	 -0.692945368	 1.207895407
H	 -3.242106557	 -1.230324257	 2.144054074
C	 -3.452040544	 0.693179625	 1.207556891
H	 -3.508495189	 1.230555387	 2.144144625
C	 -3.526737523	 1.385901466	 0.000000000
H	 -3.644389997	 2.460966658	 0.000000000
