15
0  1  0  1  0  1   3  12  3.57646  4.23962  3.30490  2.64174  3.20882  2.88307 10.14912 10.14402 10.14897  4.40154 -10.10458 28.49575 -6.84137 -7.14826
O	 -2.836955266	 -1.411787303	 0.000000000
H	 -3.264987672	 -0.553622177	 0.000000000
H	 -1.902281158	 -1.184264462	 0.000000000
C	 0.074216974	 0.693179625	 1.207556891
H	 0.130671619	 1.230555387	 2.144144625
C	 -0.074297636	 -0.692945368	 1.207895407
H	 -0.135717014	 -1.230324257	 2.144054074
C	 -0.148062151	 -1.386375244	 0.000000000
H	 -0.264703429	 -2.461366176	 0.000000000
C	 -0.074297635	 -0.692945368	 -1.207895407
H	 -0.135717014	 -1.230324257	 -2.144054074
C	 0.074216974	 0.693179625	 -1.207556891
H	 0.130671619	 1.230555387	 -2.144144625
C	 0.148913952	 1.385901466	 -0.000000000
H	 0.266566426	 2.460966658	 -0.000000000
