15
0  1  0  1  0  1   3  12 -2.55138 -2.10766 -2.59653 -3.04025 -2.70543 -2.89774  1.59716  1.58023  1.58321 -2.02815 -4.73951  9.54752 -2.13459 -4.70158
O	 -2.450820092	 -0.236400313	 -0.000000000
H	 -2.286016097	 -1.181121841	 -0.000000000
H	 -1.563519149	 0.135190012	 -0.000000000
C	 0.780147171	 -0.609914733	 -1.207556891
H	 0.896191595	 -1.137639594	 -2.144144625
C	 0.477942753	 0.750993631	 -1.207895407
H	 0.356964231	 1.278167803	 -2.144054074
C	 0.327289279	 1.431867868	 -0.000000000
H	 0.091465028	 2.487139215	 0.000000000
C	 0.477942754	 0.750993631	 1.207895407
H	 0.356964231	 1.278167803	 2.144054074
C	 0.780147171	 -0.609914733	 1.207556891
H	 0.896191595	 -1.137639594	 2.144144625
C	 0.931648311	 -1.289981342	 0.000000000
H	 1.168485730	 -2.345213690	 -0.000000000
