15
0  1  0  1  0  1   3  12 18.32602 19.58790 17.99130 16.72942 17.84710 17.19401 29.75109 29.73225 29.71581 18.85338 -23.97788 66.06423 -10.83782 -12.39516
O	 -2.404970811	 -0.038351074	 1.209640386
H	 -2.354398716	 0.918857928	 1.180442573
H	 -1.605444950	 -0.308647568	 0.748033915
C	 0.074216974	 0.693179625	 1.207556891
H	 0.130671619	 1.230555387	 2.144144625
C	 -0.074297636	 -0.692945368	 1.207895407
H	 -0.135717014	 -1.230324257	 2.144054074
C	 -0.148062151	 -1.386375244	 0.000000000
H	 -0.264703429	 -2.461366176	 0.000000000
C	 -0.074297635	 -0.692945368	 -1.207895407
H	 -0.135717014	 -1.230324257	 -2.144054074
C	 0.074216974	 0.693179625	 -1.207556891
H	 0.130671619	 1.230555387	 -2.144144625
C	 0.148913952	 1.385901466	 -0.000000000
H	 0.266566426	 2.460966658	 -0.000000000
