15
0  1  0  1  0  1   3  12 -2.21820 -1.80197 -2.25204 -2.66826 -2.35126 -2.53553  1.86669  1.85564  1.85326 -1.85306 -4.43163  9.20703 -2.02472 -4.60374
O	 -0.308615317	 -0.038405149	 -0.027440774
H	 -0.359187413	 0.918803853	 0.001757039
H	 -1.108141179	 -0.308701643	 0.434165697
C	 -3.452040544	 0.693179625	 -1.207556891
H	 -3.508495189	 1.230555387	 -2.144144625
C	 -3.303525934	 -0.692945368	 -1.207895407
H	 -3.242106557	 -1.230324257	 -2.144054074
C	 -3.229761419	 -1.386375244	 -0.000000000
H	 -3.113120141	 -2.461366176	 -0.000000000
C	 -3.303525935	 -0.692945368	 1.207895407
H	 -3.242106557	 -1.230324257	 2.144054074
C	 -3.452040544	 0.693179625	 1.207556891
H	 -3.508495189	 1.230555387	 2.144144625
C	 -3.526737523	 1.385901466	 0.000000000
H	 -3.644389997	 2.460966658	 0.000000000
