15
0  1  0  1  0  1   3  12 -2.30339 -1.89182 -2.39870 -2.81027 -2.50176 -2.67914  1.77165  1.75036  1.75268 -1.74982 -3.64256  8.08162 -1.75477 -4.43412
O	 -0.312404412	 -0.060700609	 0.000000000
H	 0.115627993	 0.797464517	 0.000000000
H	 -1.247078521	 0.166822232	 -0.000000000
C	 -3.452040544	 0.693179625	 -1.207556891
H	 -3.508495189	 1.230555387	 -2.144144625
C	 -3.303525934	 -0.692945368	 -1.207895407
H	 -3.242106557	 -1.230324257	 -2.144054074
C	 -3.229761419	 -1.386375244	 -0.000000000
H	 -3.113120141	 -2.461366176	 -0.000000000
C	 -3.303525935	 -0.692945368	 1.207895407
H	 -3.242106557	 -1.230324257	 2.144054074
C	 -3.452040544	 0.693179625	 1.207556891
H	 -3.508495189	 1.230555387	 2.144144625
C	 -3.526737523	 1.385901466	 0.000000000
H	 -3.644389997	 2.460966658	 0.000000000
