15
0  1  0  1  0  1   3  12 -2.46030 -2.32148 -2.46317 -2.60199 -2.50644 -2.56141 -1.13429 -1.13553 -1.13490 -2.36776 -1.98903  1.78100 -0.54487 -1.61486
O	 -3.583842380	 -0.038445705	 -1.800827127
H	 -3.533270285	 0.918763297	 -1.771629314
H	 -2.784316519	 -0.308742199	 -1.339220656
C	 0.074216974	 0.693179625	 1.207556891
H	 0.130671619	 1.230555387	 2.144144625
C	 -0.074297636	 -0.692945368	 1.207895407
H	 -0.135717014	 -1.230324257	 2.144054074
C	 -0.148062151	 -1.386375244	 0.000000000
H	 -0.264703429	 -2.461366176	 0.000000000
C	 -0.074297635	 -0.692945368	 -1.207895407
H	 -0.135717014	 -1.230324257	 -2.144054074
C	 0.074216974	 0.693179625	 -1.207556891
H	 0.130671619	 1.230555387	 -2.144144625
C	 0.148913952	 1.385901466	 -0.000000000
H	 0.266566426	 2.460966658	 -0.000000000
