15
0  1  0  1  0  1   3  12 -2.87098 -2.55089 -2.92987 -3.24996 -3.02062 -3.15468  0.22230  0.20135  0.19784 -2.50231 -2.76522  4.88290 -1.21300 -3.40699
O	 -0.143667016	 -0.060721976	 0.000000000
H	 0.284365389	 0.797443150	 0.000000000
H	 -1.078341125	 0.166800865	 -0.000000000
C	 -3.452040544	 0.693179625	 -1.207556891
H	 -3.508495189	 1.230555387	 -2.144144625
C	 -3.303525934	 -0.692945368	 -1.207895407
H	 -3.242106557	 -1.230324257	 -2.144054074
C	 -3.229761419	 -1.386375244	 -0.000000000
H	 -3.113120141	 -2.461366176	 -0.000000000
C	 -3.303525935	 -0.692945368	 1.207895407
H	 -3.242106557	 -1.230324257	 2.144054074
C	 -3.452040544	 0.693179625	 1.207556891
H	 -3.508495189	 1.230555387	 2.144144625
C	 -3.526737523	 1.385901466	 0.000000000
H	 -3.644389997	 2.460966658	 0.000000000
