15
0  1  0  1  0  1   3  12 -2.43177 -2.17508 -2.37226 -2.62895 -2.44195 -2.55283 -0.09472 -0.10110 -0.10768 -2.21606 -2.68123  3.80745 -0.70488 -2.63740
O	 -3.190454416	 1.598645088	 0.000000000
H	 -2.661277820	 2.398414588	 0.000000000
H	 -2.526076802	 0.902954986	 0.000000000
C	 0.074216974	 0.693179625	 1.207556891
H	 0.130671619	 1.230555387	 2.144144625
C	 -0.074297636	 -0.692945368	 1.207895407
H	 -0.135717014	 -1.230324257	 2.144054074
C	 -0.148062151	 -1.386375244	 0.000000000
H	 -0.264703429	 -2.461366176	 0.000000000
C	 -0.074297635	 -0.692945368	 -1.207895407
H	 -0.135717014	 -1.230324257	 -2.144054074
C	 0.074216974	 0.693179625	 -1.207556891
H	 0.130671619	 1.230555387	 -2.144144625
C	 0.148913952	 1.385901466	 -0.000000000
H	 0.266566426	 2.460966658	 -0.000000000
