15
0  1  0  1  0  1   3  12 -1.96212 -1.86373 -1.95380 -2.05219 -1.98620 -2.02335 -1.04910 -1.04442 -1.04205 -1.93848 -1.29967  0.75302 -0.25831 -1.13352
O	 -3.683740720	 1.851975711	 0.000000000
H	 -3.154564124	 2.651745211	 0.000000000
H	 -3.019363106	 1.156285609	 0.000000000
C	 0.074216974	 0.693179625	 1.207556891
H	 0.130671619	 1.230555387	 2.144144625
C	 -0.074297636	 -0.692945368	 1.207895407
H	 -0.135717014	 -1.230324257	 2.144054074
C	 -0.148062151	 -1.386375244	 0.000000000
H	 -0.264703429	 -2.461366176	 0.000000000
C	 -0.074297635	 -0.692945368	 -1.207895407
H	 -0.135717014	 -1.230324257	 -2.144054074
C	 0.074216974	 0.693179625	 -1.207556891
H	 0.130671619	 1.230555387	 -2.144144625
C	 0.148913952	 1.385901466	 -0.000000000
H	 0.266566426	 2.460966658	 -0.000000000
