15
0  1  0  1  0  1   3  12 -3.08543 -2.73465 -3.03953 -3.39031 -3.13445 -3.28615  0.06399  0.05502  0.04606 -2.83125 -3.73712  5.80038 -1.22789 -3.66662
O	 -0.128427515	 -0.005821108	 0.000000000
H	 -0.657604112	 0.793948391	 0.000000000
H	 -0.792805130	 -0.701511210	 -0.000000000
C	 -3.452040544	 0.693179625	 -1.207556891
H	 -3.508495189	 1.230555387	 -2.144144625
C	 -3.303525934	 -0.692945368	 -1.207895407
H	 -3.242106557	 -1.230324257	 -2.144054074
C	 -3.229761419	 -1.386375244	 -0.000000000
H	 -3.113120141	 -2.461366176	 -0.000000000
C	 -3.303525935	 -0.692945368	 1.207895407
H	 -3.242106557	 -1.230324257	 2.144054074
C	 -3.452040544	 0.693179625	 1.207556891
H	 -3.508495189	 1.230555387	 2.144144625
C	 -3.526737523	 1.385901466	 0.000000000
H	 -3.644389997	 2.460966658	 0.000000000
