15
0  1  0  1  0  1   3  12 -2.40495 -2.21713 -2.36475 -2.55256 -2.41976 -2.49786 -0.69138 -0.69290 -0.69604 -2.28110 -2.03459  2.23256 -0.49712 -1.98194
O	 -3.354883184	 1.683088629	 0.000000000
H	 -2.825706588	 2.482858129	 0.000000000
H	 -2.690505570	 0.987398527	 0.000000000
C	 0.074216974	 0.693179625	 1.207556891
H	 0.130671619	 1.230555387	 2.144144625
C	 -0.074297636	 -0.692945368	 1.207895407
H	 -0.135717014	 -1.230324257	 2.144054074
C	 -0.148062151	 -1.386375244	 0.000000000
H	 -0.264703429	 -2.461366176	 0.000000000
C	 -0.074297635	 -0.692945368	 -1.207895407
H	 -0.135717014	 -1.230324257	 -2.144054074
C	 0.074216974	 0.693179625	 -1.207556891
H	 0.130671619	 1.230555387	 -2.144144625
C	 0.148913952	 1.385901466	 -0.000000000
H	 0.266566426	 2.460966658	 -0.000000000
