15
0  1  0  1  0  1   3  12 -2.96048 -2.71288 -3.00046 -3.24805 -3.07656 -3.17846 -0.62073 -0.63768 -0.64422 -2.73044 -2.19025  2.92228 -0.84375 -2.61872
O	 0.025070381	 -0.060743343	 0.000000000
H	 0.453102786	 0.797421783	 0.000000000
H	 -0.909603728	 0.166779498	 -0.000000000
C	 -3.452040544	 0.693179625	 -1.207556891
H	 -3.508495189	 1.230555387	 -2.144144625
C	 -3.303525934	 -0.692945368	 -1.207895407
H	 -3.242106557	 -1.230324257	 -2.144054074
C	 -3.229761419	 -1.386375244	 -0.000000000
H	 -3.113120141	 -2.461366176	 -0.000000000
C	 -3.303525935	 -0.692945368	 1.207895407
H	 -3.242106557	 -1.230324257	 2.144054074
C	 -3.452040544	 0.693179625	 1.207556891
H	 -3.508495189	 1.230555387	 2.144144625
C	 -3.526737523	 1.385901466	 0.000000000
H	 -3.644389997	 2.460966658	 0.000000000
