18
0  1  0  1  0  1  12   6 -2.85900 -2.73032 -2.95907 -3.08775 -3.00368 -3.05261 -1.03415 -1.03567 -1.03645 -2.81780 -1.79830  1.54751 -0.48147 -2.08554
C	 0.467194965	 1.388857730	 0.172052865
H	 0.560424003	 2.466024377	 0.172087324
C	 0.402036947	 0.694251706	 1.379905547
H	 0.444384279	 1.233448368	 2.316055006
C	 0.276970686	 -0.694504227	 1.379480079
H	 0.225201644	 -1.232432876	 2.316053206
C	 0.216851465	 -1.388761335	 0.172128843
H	 0.118841136	 -2.465700823	 0.172181974
C	 0.278163051	 -0.694642700	 -1.035280333
H	 0.227557616	 -1.232693533	 -1.971858431
C	 0.403251297	 0.694089186	 -1.035768640
H	 0.446484388	 1.233201568	 -1.971928612
O	 -3.263350296	 0.669876232	 -1.622706273
H	 -2.430931483	 0.678830775	 -1.139882505
C	 -3.598505651	 -0.685774297	 -1.849942073
H	 -4.539164203	 -0.695273421	 -2.393886417
H	 -2.848565474	 -1.203633234	 -2.452313144
H	 -3.734834732	 -1.241368693	 -0.919256690
