18
0  1  0  1  0  1  12   6 -3.31220 -3.10133 -3.48971 -3.70058 -3.55853 -3.64279 -0.26970 -0.27545 -0.28053 -3.23901 -2.06315  2.87461 -0.72650 -3.32396
C	 -3.742988048	 1.388900371	 0.000033500
H	 -3.836217086	 2.466067018	 -0.000000959
C	 -3.677830030	 0.694294347	 -1.207819182
H	 -3.720177362	 1.233491009	 -2.143968641
C	 -3.552763769	 -0.694461586	 -1.207393714
H	 -3.500994728	 -1.232390235	 -2.143966841
C	 -3.492644548	 -1.388718694	 -0.000042478
H	 -3.394634219	 -2.465658182	 -0.000095609
C	 -3.553956134	 -0.694600059	 1.207366698
H	 -3.503350699	 -1.232650892	 2.143944796
C	 -3.679044380	 0.694131827	 1.207855005
H	 -3.722277472	 1.233244209	 2.144014977
O	 -0.109275525	 0.669876232	 0.073314809
H	 -0.943622581	 0.678830775	 0.552798764
C	 0.255094128	 -0.685774297	 -0.103320343
H	 1.196493024	 -0.695273421	 -0.645982373
H	 0.401792690	 -1.203633234	 0.847332438
H	 -0.482738516	 -1.241368693	 -0.686727481
