18
0  1  0  1  0  1  12   6 -2.96160 -2.80834 -3.10549 -3.25875 -3.15932 -3.21817 -0.66593 -0.66717 -0.67040 -2.94943 -1.56155  1.65665 -0.49191 -2.55262
C	 -3.917400257	 1.388857730	 0.000032540
H	 -4.010629295	 2.466024377	 -0.000001919
C	 -3.852242239	 0.694251706	 -1.207820142
H	 -3.894589571	 1.233448368	 -2.143969601
C	 -3.727175978	 -0.694504227	 -1.207394674
H	 -3.675406937	 -1.232432876	 -2.143967801
C	 -3.667056757	 -1.388761335	 -0.000043438
H	 -3.569046428	 -2.465700823	 -0.000096569
C	 -3.728368343	 -0.694642700	 1.207365738
H	 -3.677762908	 -1.232693533	 2.143943836
C	 -3.853456589	 0.694089186	 1.207854045
H	 -3.896689681	 1.233201568	 2.144014017
O	 -0.109275525	 0.669876232	 0.073314809
H	 -0.943622581	 0.678830775	 0.552798764
C	 0.255094128	 -0.685774297	 -0.103320343
H	 1.196493024	 -0.695273421	 -0.645982373
H	 0.401792690	 -1.203633234	 0.847332438
H	 -0.482738516	 -1.241368693	 -0.686727481
