18
0  1  0  1  0  1  12   6  5.47733  6.45957  4.61228  3.63004  4.46426  3.98462 18.02311 18.01325 18.01952  6.50356 -14.85576 40.54629 -6.23642 -12.95055
C	 -2.869540778	 1.389113577	 0.000024387
H	 -2.962769816	 2.466280224	 -0.000010072
C	 -2.804382760	 0.694507553	 -1.207828295
H	 -2.846730092	 1.233704215	 -2.143977754
C	 -2.679316499	 -0.694248380	 -1.207402827
H	 -2.627547458	 -1.232177029	 -2.143975954
C	 -2.619197278	 -1.388505488	 -0.000051591
H	 -2.521186949	 -2.465444976	 -0.000104722
C	 -2.680508864	 -0.694386853	 1.207357585
H	 -2.629903429	 -1.232437686	 2.143935683
C	 -2.805597110	 0.694345033	 1.207845892
H	 -2.848830202	 1.233457415	 2.144005864
O	 -0.087984914	 0.669876232	 -0.098217330
H	 -0.920403728	 0.678830775	 -0.581041098
C	 0.247170441	 -0.685774297	 0.129018470
H	 1.187828993	 -0.695273421	 0.672962814
H	 -0.502769736	 -1.203633234	 0.731389542
H	 0.383499522	 -1.241368693	 -0.801666912
