18
0  1  0  1  0  1  12   6 -1.89667 -1.46530 -2.25065 -2.68202 -2.33555 -2.53342  3.47763  3.47307  3.47885 -1.24284 -6.45742 14.58460 -3.58759 -5.78243
C	 -0.227332526	 1.561105755	 -0.000032659
H	 -0.134103488	 2.638272402	 0.000001800
C	 -0.292490544	 0.866499731	 1.207820023
H	 -0.250143212	 1.405696393	 2.143969482
C	 -0.417556805	 -0.522256202	 1.207394555
H	 -0.469325847	 -1.060184851	 2.143967682
C	 -0.477676026	 -1.216513310	 0.000043319
H	 -0.575686355	 -2.293452798	 0.000096450
C	 -0.416364440	 -0.522394675	 -1.207365857
H	 -0.466969875	 -1.060445508	 -2.143943955
C	 -0.291276194	 0.866337211	 -1.207854164
H	 -0.248043103	 1.405449593	 -2.144014136
O	 -3.057607033	 2.215287367	 0.014377477
H	 -2.219746827	 1.741888368	 0.016305719
C	 -4.085194801	 1.243195047	 -0.014836821
H	 -5.030973087	 1.778271751	 -0.015577165
H	 -4.042503462	 0.620575197	 -0.911475560
H	 -4.062240218	 0.588397063	 0.859324904
