18
0  1  0  1  0  1  12   6 45.19171 47.05782 43.42073 41.55461 43.25562 42.24456 64.81483 64.80744 64.74185 43.49098 -37.20590 130.63757 -28.90813 -21.03257
C	 -0.935454846	 1.905431240	 -0.000029060
H	 -0.842225808	 2.982597887	 0.000005399
C	 -1.000612864	 1.210825216	 1.207823622
H	 -0.958265532	 1.750021878	 2.143973081
C	 -1.125679125	 -0.177930717	 1.207398154
H	 -1.177448167	 -0.715859366	 2.143971281
C	 -1.185798346	 -0.872187825	 0.000046918
H	 -1.283808675	 -1.949127313	 0.000100049
C	 -1.124486760	 -0.178069190	 -1.207362258
H	 -1.175092195	 -0.716120023	 -2.143940356
C	 -0.999398514	 1.210662696	 -1.207850565
H	 -0.956165423	 1.749775078	 -2.144010537
O	 -3.057607033	 2.215287367	 0.014377477
H	 -2.219746827	 1.741888368	 0.016305719
C	 -4.085194801	 1.243195047	 -0.014836821
H	 -5.030973087	 1.778271751	 -0.015577165
H	 -4.042503462	 0.620575197	 -0.911475560
H	 -4.062240218	 0.588397063	 0.859324904
