18
0  1  0  1  0  1  12   6 -3.45586 -3.17181 -3.68299 -3.96703 -3.76689 -3.88544  0.55206  0.54294  0.53620 -3.28722 -2.81751  4.89580 -1.05861 -4.30690
C	 -3.568575839	 1.388943012	 0.000034459
H	 -3.661804877	 2.466109659	 -0.000000000
C	 -3.503417821	 0.694336988	 -1.207818223
H	 -3.545765153	 1.233533650	 -2.143967682
C	 -3.378351560	 -0.694418945	 -1.207392755
H	 -3.326582519	 -1.232347594	 -2.143965882
C	 -3.318232339	 -1.388676053	 -0.000041519
H	 -3.220222010	 -2.465615541	 -0.000094650
C	 -3.379543925	 -0.694557418	 1.207367657
H	 -3.328938490	 -1.232608251	 2.143945755
C	 -3.504632171	 0.694174468	 1.207855964
H	 -3.547865263	 1.233286850	 2.144015936
O	 -0.087984914	 0.669876232	 -0.098217330
H	 -0.920403728	 0.678830775	 -0.581041098
C	 0.247170441	 -0.685774297	 0.129018470
H	 1.187828993	 -0.695273421	 0.672962814
H	 -0.502769736	 -1.203633234	 0.731389542
H	 0.383499522	 -1.241368693	 -0.801666912
