18
0  1  0  1  0  1  12   6 -3.28969 -3.07217 -3.44995 -3.66747 -3.51225 -3.60174 -0.49174 -0.49913 -0.49854 -3.03375 -3.10814  4.51110 -1.30809 -3.12861
C	 0.126728634	 1.388943012	 -0.000034459
H	 0.219957672	 2.466109659	 0.000000000
C	 0.061570616	 0.694336988	 1.207818223
H	 0.103917948	 1.233533650	 2.143967682
C	 -0.063495645	 -0.694418945	 1.207392755
H	 -0.115264687	 -1.232347594	 2.143965882
C	 -0.123614866	 -1.388676053	 0.000041519
H	 -0.221625195	 -2.465615541	 0.000094650
C	 -0.062303280	 -0.694557418	 -1.207367657
H	 -0.112908715	 -1.232608251	 -2.143945755
C	 0.062784966	 0.694174468	 -1.207855964
H	 0.106018057	 1.233286850	 -2.144015936
O	 -3.057607033	 2.215287367	 0.014377477
H	 -2.219746827	 1.741888368	 0.016305719
C	 -4.085194801	 1.243195047	 -0.014836821
H	 -5.030973087	 1.778271751	 -0.015577165
H	 -4.042503462	 0.620575197	 -0.911475560
H	 -4.062240218	 0.588397063	 0.859324904
