18
0  1  0  1  0  1  12   6 -2.24069 -1.71704 -2.66749 -3.19114 -2.78308 -3.02124  4.84537  4.83339  4.82806 -1.70458 -6.08609 14.32564 -2.51080 -7.43334
C	 -3.219058308	 1.389028294	 0.000029423
H	 -3.312287346	 2.466194941	 -0.000005036
C	 -3.153900290	 0.694422270	 -1.207823259
H	 -3.196247622	 1.233618932	 -2.143972718
C	 -3.028834029	 -0.694333663	 -1.207397791
H	 -2.977064988	 -1.232262312	 -2.143970918
C	 -2.968714808	 -1.388590771	 -0.000046555
H	 -2.870704479	 -2.465530259	 -0.000099686
C	 -3.030026394	 -0.694472136	 1.207362621
H	 -2.979420959	 -1.232522969	 2.143940719
C	 -3.155114640	 0.694259750	 1.207850928
H	 -3.198347732	 1.233372132	 2.144010900
O	 -0.087984914	 0.669876232	 -0.098217330
H	 -0.920403728	 0.678830775	 -0.581041098
C	 0.247170441	 -0.685774297	 0.129018470
H	 1.187828993	 -0.695273421	 0.672962814
H	 -0.502769736	 -1.203633234	 0.731389542
H	 0.383499522	 -1.241368693	 -0.801666912
