18
0  1  0  1  0  1  12   6 -3.08338 -2.71675 -3.32733 -3.69396 -3.42537 -3.58023  1.38826  1.36871  1.36972 -2.72588 -3.31764  7.25813 -1.77890 -4.88746
C	 -3.383491989	 1.388978203	 0.000033559
H	 -3.476721027	 2.466144850	 -0.000000900
C	 -3.318333971	 0.694372179	 -1.207819123
H	 -3.360681303	 1.233568841	 -2.143968582
C	 -3.193267710	 -0.694383754	 -1.207393655
H	 -3.141498669	 -1.232312403	 -2.143966782
C	 -3.133148489	 -1.388640862	 -0.000042419
H	 -3.035138160	 -2.465580350	 -0.000095550
C	 -3.194460075	 -0.694522227	 1.207366757
H	 -3.143854640	 -1.232573060	 2.143944855
C	 -3.319548321	 0.694209659	 1.207855064
H	 -3.362781413	 1.233322041	 2.144015036
O	 -0.223174779	 0.494363765	 -0.014377477
H	 -1.061034985	 0.020964765	 -0.016305719
C	 0.804412990	 -0.477728556	 0.014836821
H	 1.750191276	 0.057348148	 0.015577165
H	 0.761721651	 -1.100348405	 0.911475560
H	 0.781458406	 -1.132526539	 -0.859324904
