18
0  1  0  1  0  1  12   6 33.16428 35.08824 31.71343 29.78948 31.52179 30.49807 54.21246 54.19842 54.14573 33.92249 -41.10969 113.76931 -17.12021 -21.61692
C	 -0.894670359	 1.389198859	 -0.516296432
H	 -0.801441321	 2.466365506	 -0.516261973
C	 -0.959828377	 0.694592835	 0.691556250
H	 -0.917481045	 1.233789497	 1.627705709
C	 -1.084894638	 -0.694163098	 0.691130782
H	 -1.136663680	 -1.232091747	 1.627703909
C	 -1.145013859	 -1.388420206	 -0.516220454
H	 -1.243024188	 -2.465359694	 -0.516167323
C	 -1.083702273	 -0.694301571	 -1.723629630
H	 -1.134307708	 -1.232352404	 -2.660207728
C	 -0.958614027	 0.694430315	 -1.724117937
H	 -0.915380936	 1.233542697	 -2.660277909
O	 -3.263350296	 0.669876232	 -1.622706273
H	 -2.430931483	 0.678830775	 -1.139882505
C	 -3.598505651	 -0.685774297	 -1.849942073
H	 -4.539164203	 -0.695273421	 -2.393886417
H	 -2.848565474	 -1.203633234	 -2.452313144
H	 -3.734834732	 -1.241368693	 -0.919256690
