18
0  1  0  1  0  1  12   6  7.86331  8.76962  7.07021  6.16390  6.95368  6.49432 18.17106 18.16754 18.16098  8.68855 -15.25495 45.10945 -10.24260 -10.92335
C	 -0.581393686	 1.733268497	 -0.000030860
H	 -0.488164648	 2.810435144	 0.000003599
C	 -0.646551704	 1.038662473	 1.207821822
H	 -0.604204372	 1.577859135	 2.143971281
C	 -0.771617965	 -0.350093460	 1.207396354
H	 -0.823387007	 -0.888022109	 2.143969481
C	 -0.831737186	 -1.044350568	 0.000045118
H	 -0.929747515	 -2.121290056	 0.000098249
C	 -0.770425600	 -0.350231933	 -1.207364058
H	 -0.821031035	 -0.888282766	 -2.143942156
C	 -0.645337354	 1.038499953	 -1.207852365
H	 -0.602104263	 1.577612335	 -2.144012337
O	 -3.057607033	 2.215287367	 0.014377477
H	 -2.219746827	 1.741888368	 0.016305719
C	 -4.085194801	 1.243195047	 -0.014836821
H	 -5.030973087	 1.778271751	 -0.015577165
H	 -4.042503462	 0.620575197	 -0.911475560
H	 -4.062240218	 0.588397063	 0.859324904
