18
0  1  0  1  0  1  12   6 -3.44869 -3.19859 -3.61003 -3.86013 -3.68255 -3.78616 -0.08296 -0.08947 -0.09170 -3.21762 -3.21229  4.77526 -1.10106 -3.67953
C	 0.126728634	 1.388943012	 -0.000034459
H	 0.219957672	 2.466109659	 0.000000000
C	 0.061570616	 0.694336988	 1.207818223
H	 0.103917948	 1.233533650	 2.143967682
C	 -0.063495645	 -0.694418945	 1.207392755
H	 -0.115264687	 -1.232347594	 2.143965882
C	 -0.123614866	 -1.388676053	 0.000041519
H	 -0.221625195	 -2.465615541	 0.000094650
C	 -0.062303280	 -0.694557418	 -1.207367657
H	 -0.112908715	 -1.232608251	 -2.143945755
C	 0.062784966	 0.694174468	 -1.207855964
H	 0.106018057	 1.233286850	 -2.144015936
O	 -3.263350296	 0.669876232	 -1.622706273
H	 -2.430931483	 0.678830775	 -1.139882505
C	 -3.598505651	 -0.685774297	 -1.849942073
H	 -4.539164203	 -0.695273421	 -2.393886417
H	 -2.848565474	 -1.203633234	 -2.452313144
H	 -3.734834732	 -1.241368693	 -0.919256690
