18
0  1  0  1  0  1  12   6 -3.23265 -3.05246 -3.35604 -3.53623 -3.41398 -3.48543 -0.75517 -0.75957 -0.76139 -3.11773 -2.35903  2.72621 -0.72152 -2.76339
C	 0.296961800	 1.388900371	 0.086009203
H	 0.390190838	 2.466067018	 0.086043662
C	 0.231803782	 0.694294347	 1.293861885
H	 0.274151114	 1.233491009	 2.230011344
C	 0.106737521	 -0.694461586	 1.293436417
H	 0.054968479	 -1.232390235	 2.230009544
C	 0.046618300	 -1.388718694	 0.086085181
H	 -0.051392029	 -2.465658182	 0.086138312
C	 0.107929886	 -0.694600059	 -1.121323995
H	 0.057324451	 -1.232650892	 -2.057902093
C	 0.233018132	 0.694131827	 -1.121812302
H	 0.276251223	 1.233244209	 -2.057972274
O	 -3.263350296	 0.669876232	 -1.622706273
H	 -2.430931483	 0.678830775	 -1.139882505
C	 -3.598505651	 -0.685774297	 -1.849942073
H	 -4.539164203	 -0.695273421	 -2.393886417
H	 -2.848565474	 -1.203633234	 -2.452313144
H	 -3.734834732	 -1.241368693	 -0.919256690
