18
0  1  0  1  0  1  12   6 -2.28575 -1.80672 -2.60594 -3.08496 -2.71083 -2.92626  3.92651  3.91760  3.91964 -1.64238 -6.70855 14.32987 -2.67861 -6.58510
C	 -0.213737697	 1.389028294	 -0.172121783
H	 -0.120508659	 2.466194941	 -0.172087324
C	 -0.278895715	 0.694422270	 1.035730899
H	 -0.236548383	 1.233618932	 1.971880358
C	 -0.403961976	 -0.694333663	 1.035305431
H	 -0.455731018	 -1.232262312	 1.971878558
C	 -0.464081197	 -1.388590771	 -0.172045805
H	 -0.562091526	 -2.465530259	 -0.171992674
C	 -0.402769611	 -0.694472136	 -1.379454981
H	 -0.453375046	 -1.232522969	 -2.316033079
C	 -0.277681365	 0.694259750	 -1.379943288
H	 -0.234448274	 1.233372132	 -2.316103260
O	 -3.263350296	 0.669876232	 -1.622706273
H	 -2.430931483	 0.678830775	 -1.139882505
C	 -3.598505651	 -0.685774297	 -1.849942073
H	 -4.539164203	 -0.695273421	 -2.393886417
H	 -2.848565474	 -1.203633234	 -2.452313144
H	 -3.734834732	 -1.241368693	 -0.919256690
