18
0  1  0  1  0  1  12   6 -2.43743 -2.29843 -2.58777 -2.72678 -2.63578 -2.68739 -0.14066 -0.13492 -0.13255 -2.45508 -1.50871  1.87054 -0.30597 -2.51094
C	 -3.757270845	 1.388904344	 0.000035359
H	 -3.850499883	 2.466070991	 0.000000900
C	 -3.692112827	 0.694298320	 -1.207817323
H	 -3.734460159	 1.233494982	 -2.143966782
C	 -3.567046566	 -0.694457613	 -1.207391855
H	 -3.515277525	 -1.232386262	 -2.143964982
C	 -3.506927345	 -1.388714721	 -0.000040619
H	 -3.408917016	 -2.465654209	 -0.000093750
C	 -3.568238931	 -0.694596086	 1.207368557
H	 -3.517633496	 -1.232646919	 2.143946655
C	 -3.693327177	 0.694135800	 1.207856864
H	 -3.736560269	 1.233248182	 2.144016836
O	 0.518071966	 0.665895904	 -0.014377477
H	 -0.310833697	 1.154804627	 -0.016305719
C	 0.190009206	 -0.710067369	 0.014836821
H	 1.126288368	 -1.261597039	 0.015577165
H	 -0.370541070	 -0.984405509	 0.911475560
H	 -0.388539774	 -1.017587108	 -0.859324904
