18
0  1  0  1  0  1  12   6 -3.23218 -3.05266 -3.35587 -3.53539 -3.41366 -3.48479 -0.76888 -0.77340 -0.77518 -3.11507 -2.36647  2.73472 -0.73315 -2.75018
C	 0.297311338	 1.388900371	 -0.086079680
H	 0.390540376	 2.466067018	 -0.086045221
C	 0.232153320	 0.694294347	 1.121773002
H	 0.274500652	 1.233491009	 2.057922461
C	 0.107087059	 -0.694461586	 1.121347534
H	 0.055318017	 -1.232390235	 2.057920661
C	 0.046967838	 -1.388718694	 -0.086003702
H	 -0.051042491	 -2.465658182	 -0.085950571
C	 0.108279424	 -0.694600059	 -1.293412878
H	 0.057673989	 -1.232650892	 -2.229990976
C	 0.233367670	 0.694131827	 -1.293901185
H	 0.276600761	 1.233244209	 -2.230061157
O	 -3.255981575	 0.669876232	 1.647608793
H	 -2.421634520	 0.678830775	 1.168124838
C	 -3.620351228	 -0.685774297	 1.824243945
H	 -4.561750124	 -0.695273421	 2.366905975
H	 -3.767049790	 -1.203633234	 0.873591165
H	 -2.882518584	 -1.241368693	 2.407651084
