18
0  1  0  1  0  1  12   6 -3.07133 -2.76697 -3.30676 -3.61112 -3.38003 -3.51252  0.80706  0.80060  0.80323 -2.63634 -4.38929  8.14775 -2.15056 -4.24424
C	 -0.050301946	 1.475024383	 -0.000033559
H	 0.042927092	 2.552191030	 0.000000900
C	 -0.115459964	 0.780418359	 1.207819123
H	 -0.073112632	 1.319615021	 2.143968582
C	 -0.240526225	 -0.608337574	 1.207393655
H	 -0.292295267	 -1.146266223	 2.143966782
C	 -0.300645446	 -1.302594682	 0.000042419
H	 -0.398655775	 -2.379534170	 0.000095550
C	 -0.239333860	 -0.608476047	 -1.207366757
H	 -0.289939295	 -1.146526880	 -2.143944855
C	 -0.114245614	 0.780255839	 -1.207855064
H	 -0.071012523	 1.319368221	 -2.144015036
O	 -3.057607033	 2.215287367	 0.014377477
H	 -2.219746827	 1.741888368	 0.016305719
C	 -4.085194801	 1.243195047	 -0.014836821
H	 -5.030973087	 1.778271751	 -0.015577165
H	 -4.042503462	 0.620575197	 -0.911475560
H	 -4.062240218	 0.588397063	 0.859324904
