18
0  1  0  1  0  1  12   6 -2.26717 -1.73797 -2.69918 -3.22838 -2.81544 -3.05612  4.86110  4.84911  4.84448 -1.72337 -6.13627 14.48117 -2.58086 -7.48741
C	 -3.219751421	 1.389028294	 0.000036378
H	 -3.312980459	 2.466194941	 0.000001919
C	 -3.154593403	 0.694422270	 -1.207816304
H	 -3.196940735	 1.233618932	 -2.143965763
C	 -3.029527142	 -0.694333663	 -1.207390836
H	 -2.977758101	 -1.232262312	 -2.143963963
C	 -2.969407921	 -1.388590771	 -0.000039600
H	 -2.871397592	 -2.465530259	 -0.000092731
C	 -3.030719507	 -0.694472136	 1.207369576
H	 -2.980114072	 -1.232522969	 2.143947674
C	 -3.155807753	 0.694259750	 1.207857883
H	 -3.199040845	 1.233372132	 2.144017855
O	 -0.109275525	 0.669876232	 0.073314809
H	 -0.943622581	 0.678830775	 0.552798764
C	 0.255094128	 -0.685774297	 -0.103320343
H	 1.196493024	 -0.695273421	 -0.645982373
H	 0.401792690	 -1.203633234	 0.847332438
H	 -0.482738516	 -1.241368693	 -0.686727481
