18
0  1  0  1  0  1  12   6 -3.59658 -3.40793 -3.74702 -3.93567 -3.81735 -3.88681 -1.16536 -1.17526 -1.17777 -3.54547 -2.02830  1.83455 -0.59254 -2.75918
C	 0.787966285	 1.046979742	 0.031112762
H	 1.463233366	 1.891368953	 0.032044984
C	 1.294834896	 -0.251657657	 0.078613444
H	 2.363133076	 -0.413475506	 0.116772706
C	 0.423537653	 -1.340286480	 0.082245477
H	 0.816879043	 -2.346787902	 0.120375858
C	 -0.953988528	 -1.130949724	 0.038610604
H	 -1.629439207	 -1.975435508	 0.042461371
C	 -1.461129006	 0.166854475	 -0.005087295
H	 -2.529729930	 0.329455173	 -0.034940631
C	 -0.590558046	 1.256035891	 -0.008775903
H	 -0.983544506	 2.262811581	 -0.038290417
O	 0.046311350	 0.305790667	 3.693689487
H	 0.132411565	 0.355663758	 2.736495942
C	 -0.849839249	 -0.751823406	 3.976744526
H	 -0.945559943	 -0.808557990	 5.057680662
H	 -1.841988837	 -0.580125666	 3.552954322
H	 -0.483378931	 -1.714864475	 3.613833010
