18
0  1  0  1  0  1  12   6 -2.51270 -2.39753 -2.59779 -2.71295 -2.64039 -2.68193 -0.76346 -0.76092 -0.75996 -2.51488 -1.43872  1.20098 -0.31429 -1.96285
C	 0.473862075	 1.560958035	 -0.000036259
H	 0.567091113	 2.638124682	 -0.000001800
C	 0.408704057	 0.866352011	 1.207816423
H	 0.451051389	 1.405548673	 2.143965882
C	 0.283637796	 -0.522403922	 1.207390955
H	 0.231868754	 -1.060332571	 2.143964082
C	 0.223518575	 -1.216661030	 0.000039719
H	 0.125508246	 -2.293600518	 0.000092850
C	 0.284830161	 -0.522542395	 -1.207369457
H	 0.234224726	 -1.060593228	 -2.143947555
C	 0.409918407	 0.866189491	 -1.207857764
H	 0.453151498	 1.405301873	 -2.144017736
O	 -3.657353457	 -1.055027699	 0.014377477
H	 -2.828447794	 -0.566118975	 0.016305719
C	 -3.329290696	 -2.430990971	 -0.014836821
H	 -4.265569858	 -2.982520641	 -0.015577165
H	 -2.768740420	 -2.705329112	 -0.911475560
H	 -2.750741717	 -2.738510711	 0.859324904
