18
0  1  0  1  0  1  12   6 31.59840 33.43194 30.18303 28.34949 29.99056 29.03172 50.41980 50.41545 50.39153 31.89634 -29.61077 93.38397 -12.28404 -19.59281
C	 -2.458072741	 1.389154159	 0.000029060
H	 -2.551301779	 2.466320806	 -0.000005399
C	 -2.392914723	 0.694548135	 -1.207823622
H	 -2.435262055	 1.233744797	 -2.143973081
C	 -2.267848462	 -0.694207798	 -1.207398154
H	 -2.216079421	 -1.232136447	 -2.143971281
C	 -2.207729241	 -1.388464906	 -0.000046918
H	 -2.109718912	 -2.465404394	 -0.000100049
C	 -2.269040827	 -0.694346271	 1.207362258
H	 -2.218435392	 -1.232397104	 2.143940356
C	 -2.394129073	 0.694385615	 1.207850565
H	 -2.437362165	 1.233497997	 2.144010537
O	 -0.223174779	 0.494363765	 -0.014377477
H	 -1.061034985	 0.020964765	 -0.016305719
C	 0.804412990	 -0.477728556	 0.014836821
H	 1.750191276	 0.057348148	 0.015577165
H	 0.761721651	 -1.100348405	 0.911475560
H	 0.781458406	 -1.132526539	 -0.859324904
