18
0  1  0  1  0  1  12   6 -2.27935 -1.80169 -2.60389 -3.08155 -2.70793 -2.92294  3.90799  3.89941  3.90175 -1.63523 -6.73542 14.40581 -2.74185 -6.56378
C	 -0.214436774	 1.389028294	 0.172055983
H	 -0.121207736	 2.466194941	 0.172090442
C	 -0.279594792	 0.694422270	 1.379908665
H	 -0.237247460	 1.233618932	 2.316058124
C	 -0.404661053	 -0.694333663	 1.379483197
H	 -0.456430095	 -1.232262312	 2.316056324
C	 -0.464780274	 -1.388590771	 0.172131961
H	 -0.562790603	 -2.465530259	 0.172185092
C	 -0.403468688	 -0.694472136	 -1.035277215
H	 -0.454074123	 -1.232522969	 -1.971855313
C	 -0.278380442	 0.694259750	 -1.035765522
H	 -0.235147351	 1.233372132	 -1.971925494
O	 -3.255981575	 0.669876232	 1.647608793
H	 -2.421634520	 0.678830775	 1.168124838
C	 -3.620351228	 -0.685774297	 1.824243945
H	 -4.561750124	 -0.695273421	 2.366905975
H	 -3.767049790	 -1.203633234	 0.873591165
H	 -2.882518584	 -1.241368693	 2.407651084
