18
0  1  0  1  0  1  12   6 -3.27322 -2.92877 -3.49881 -3.84326 -3.58622 -3.73518  1.27891  1.27119  1.27033 -2.86566 -4.57062  8.34619 -1.74334 -4.89788
C	 -0.043854070	 1.388985653	 0.086010762
H	 0.049374968	 2.466152300	 0.086045221
C	 -0.109012088	 0.694379629	 1.293863444
H	 -0.066664756	 1.233576291	 2.230012903
C	 -0.234078349	 -0.694376304	 1.293437976
H	 -0.285847391	 -1.232304953	 2.230011103
C	 -0.294197570	 -1.388633412	 0.086086740
H	 -0.392207899	 -2.465572900	 0.086139871
C	 -0.232885984	 -0.694514777	 -1.121322436
H	 -0.283491419	 -1.232565610	 -2.057900534
C	 -0.107797738	 0.694217109	 -1.121810743
H	 -0.064564647	 1.233329491	 -2.057970715
O	 -3.255981575	 0.669876232	 1.647608793
H	 -2.421634520	 0.678830775	 1.168124838
C	 -3.620351228	 -0.685774297	 1.824243945
H	 -4.561750124	 -0.695273421	 2.366905975
H	 -3.767049790	 -1.203633234	 0.873591165
H	 -2.882518584	 -1.241368693	 2.407651084
