18
0  1  0  1  0  1  12   6 34.91527 36.78332 34.13716 32.26911 33.92332 32.95527 55.14120 55.12132 55.09358 35.47765 -40.15635 107.23414 -9.91433 -21.68582
C	 -0.914671688	 0.872897942	 -0.000029060
H	 -0.821442650	 1.950064589	 0.000005399
C	 -0.979829706	 0.178291918	 1.207823622
H	 -0.937482374	 0.717488580	 2.143973081
C	 -1.104895967	 -1.210464015	 1.207398154
H	 -1.156665009	 -1.748392664	 2.143971281
C	 -1.165015188	 -1.904721123	 0.000046918
H	 -1.263025517	 -2.981660611	 0.000100049
C	 -1.103703602	 -1.210602488	 -1.207362258
H	 -1.154309037	 -1.748653321	 -2.143940356
C	 -0.978615356	 0.178129398	 -1.207850565
H	 -0.935382265	 0.717241780	 -2.144010537
O	 -3.657353457	 -1.055027699	 0.014377477
H	 -2.828447794	 -0.566118975	 0.016305719
C	 -3.329290696	 -2.430990971	 -0.014836821
H	 -4.265569858	 -2.982520641	 -0.015577165
H	 -2.768740420	 -2.705329112	 -0.911475560
H	 -2.750741717	 -2.738510711	 0.859324904
