18
0  1  0  1  0  1  12   6 -3.44919 -3.20003 -3.61172 -3.86088 -3.68383 -3.78709 -0.10070 -0.10723 -0.10936 -3.21536 -3.22419  4.79441 -1.12175 -3.66382
C	 0.126728634	 1.388943012	 -0.000034459
H	 0.219957672	 2.466109659	 0.000000000
C	 0.061570616	 0.694336988	 1.207818223
H	 0.103917948	 1.233533650	 2.143967682
C	 -0.063495645	 -0.694418945	 1.207392755
H	 -0.115264687	 -1.232347594	 2.143965882
C	 -0.123614866	 -1.388676053	 0.000041519
H	 -0.221625195	 -2.465615541	 0.000094650
C	 -0.062303280	 -0.694557418	 -1.207367657
H	 -0.112908715	 -1.232608251	 -2.143945755
C	 0.062784966	 0.694174468	 -1.207855964
H	 0.106018057	 1.233286850	 -2.144015936
O	 -3.255981575	 0.669876232	 1.647608793
H	 -2.421634520	 0.678830775	 1.168124838
C	 -3.620351228	 -0.685774297	 1.824243945
H	 -4.561750124	 -0.695273421	 2.366905975
H	 -3.767049790	 -1.203633234	 0.873591165
H	 -2.882518584	 -1.241368693	 2.407651084
