18
0  1  0  1  0  1  12   6  5.87789  6.80138  5.51523  4.59174  5.35858  4.90767 16.89914 16.87683 16.85885  6.90052 -14.31112 36.47368 -3.69966 -11.56238
C	 -0.567538247	 1.044912965	 -0.000030860
H	 -0.474309209	 2.122079612	 0.000003599
C	 -0.632696265	 0.350306941	 1.207821822
H	 -0.590348933	 0.889503603	 2.143971281
C	 -0.757762526	 -1.038448992	 1.207396354
H	 -0.809531568	 -1.576377641	 2.143969481
C	 -0.817881747	 -1.732706100	 0.000045118
H	 -0.915892076	 -2.809645588	 0.000098249
C	 -0.756570161	 -1.038587465	 -1.207364058
H	 -0.807175596	 -1.576638298	 -2.143942156
C	 -0.631481915	 0.350144421	 -1.207852365
H	 -0.588248824	 0.889256803	 -2.144012337
O	 -3.657353457	 -1.055027699	 0.014377477
H	 -2.828447794	 -0.566118975	 0.016305719
C	 -3.329290696	 -2.430990971	 -0.014836821
H	 -4.265569858	 -2.982520641	 -0.015577165
H	 -2.768740420	 -2.705329112	 -0.911475560
H	 -2.750741717	 -2.738510711	 0.859324904
