18
0  1  0  1  0  1  12   6  5.65690  6.57182  4.90255  3.98763  4.76408  4.32780 16.26148 16.25755 16.28744  6.60341 -11.56934 35.41475 -5.91754 -11.32446
C	 -2.828240440	 1.389083777	 0.000030860
H	 -2.921469478	 2.466250424	 -0.000003599
C	 -2.763082422	 0.694477753	 -1.207821822
H	 -2.805429754	 1.233674415	 -2.143971281
C	 -2.638016161	 -0.694278180	 -1.207396354
H	 -2.586247120	 -1.232206829	 -2.143969481
C	 -2.577896940	 -1.388535288	 -0.000045118
H	 -2.479886611	 -2.465474776	 -0.000098249
C	 -2.639208526	 -0.694416653	 1.207364058
H	 -2.588603091	 -1.232467486	 2.143942156
C	 -2.764296772	 0.694315233	 1.207852365
H	 -2.807529864	 1.233427615	 2.144012337
O	 -0.223174779	 0.494363765	 -0.014377477
H	 -1.061034985	 0.020964765	 -0.016305719
C	 0.804412990	 -0.477728556	 0.014836821
H	 1.750191276	 0.057348148	 0.015577165
H	 0.761721651	 -1.100348405	 0.911475560
H	 0.781458406	 -1.132526539	 -0.859324904
