18
0  1  0  1  0  1  12   6 -2.59502 -2.39693 -2.78012 -2.97821 -2.84195 -2.92071  0.52859  0.53236  0.53240 -2.55857 -2.11281  3.36226 -0.47214 -3.33588
C	 -3.568575839	 1.388943012	 0.000034459
H	 -3.661804877	 2.466109659	 -0.000000000
C	 -3.503417821	 0.694336988	 -1.207818223
H	 -3.545765153	 1.233533650	 -2.143967682
C	 -3.378351560	 -0.694418945	 -1.207392755
H	 -3.326582519	 -1.232347594	 -2.143965882
C	 -3.318232339	 -1.388676053	 -0.000041519
H	 -3.220222010	 -2.465615541	 -0.000094650
C	 -3.379543925	 -0.694557418	 1.207367657
H	 -3.328938490	 -1.232608251	 2.143945755
C	 -3.504632171	 0.694174468	 1.207855964
H	 -3.547865263	 1.233286850	 2.144015936
O	 0.518071966	 0.665895904	 -0.014377477
H	 -0.310833697	 1.154804627	 -0.016305719
C	 0.190009206	 -0.710067369	 0.014836821
H	 1.126288368	 -1.261597039	 0.015577165
H	 -0.370541070	 -0.984405509	 0.911475560
H	 -0.388539774	 -1.017587108	 -0.859324904
