18
0  1  0  1  0  1  12   6 -3.49680 -3.20885 -3.72565 -4.01361 -3.81043 -3.93071  0.54147  0.53189  0.52522 -3.32215 -2.84706  4.96026 -1.09173 -4.34362
C	 -3.568575839	 1.388943012	 0.000034459
H	 -3.661804877	 2.466109659	 -0.000000000
C	 -3.503417821	 0.694336988	 -1.207818223
H	 -3.545765153	 1.233533650	 -2.143967682
C	 -3.378351560	 -0.694418945	 -1.207392755
H	 -3.326582519	 -1.232347594	 -2.143965882
C	 -3.318232339	 -1.388676053	 -0.000041519
H	 -3.220222010	 -2.465615541	 -0.000094650
C	 -3.379543925	 -0.694557418	 1.207367657
H	 -3.328938490	 -1.232608251	 2.143945755
C	 -3.504632171	 0.694174468	 1.207855964
H	 -3.547865263	 1.233286850	 2.144015936
O	 -0.109275525	 0.669876232	 0.073314809
H	 -0.943622581	 0.678830775	 0.552798764
C	 0.255094128	 -0.685774297	 -0.103320343
H	 1.196493024	 -0.695273421	 -0.645982373
H	 0.401792690	 -1.203633234	 0.847332438
H	 -0.482738516	 -1.241368693	 -0.686727481
