18
0  1  0  1  0  1  12   6 -2.86687 -2.53864 -3.00615 -3.33437 -3.09542 -3.23729  1.52412  1.51701  1.50817 -2.61671 -3.73462  6.78102 -0.98863 -4.67448
C	 -0.046838086	 1.302935500	 -0.000033559
H	 0.046390952	 2.380102147	 0.000000900
C	 -0.111996104	 0.608329476	 1.207819123
H	 -0.069648772	 1.147526138	 2.143968582
C	 -0.237062365	 -0.780426457	 1.207393655
H	 -0.288831407	 -1.318355106	 2.143966782
C	 -0.297181586	 -1.474683565	 0.000042419
H	 -0.395191915	 -2.551623053	 0.000095550
C	 -0.235870000	 -0.780564930	 -1.207366757
H	 -0.286475435	 -1.318615763	 -2.143944855
C	 -0.110781754	 0.608166956	 -1.207855064
H	 -0.067548663	 1.147279338	 -2.144015036
O	 -3.657353457	 -1.055027699	 0.014377477
H	 -2.828447794	 -0.566118975	 0.016305719
C	 -3.329290696	 -2.430990971	 -0.014836821
H	 -4.265569858	 -2.982520641	 -0.015577165
H	 -2.768740420	 -2.705329112	 -0.911475560
H	 -2.750741717	 -2.738510711	 0.859324904
