18
0  1  0  1  0  1  12   6 -2.85710 -2.72893 -2.95712 -3.08529 -3.00157 -3.05030 -1.04388 -1.04556 -1.04633 -2.81441 -1.80276  1.55080 -0.48791 -2.07454
C	 0.467894042	 1.388857730	 -0.172124901
H	 0.561123080	 2.466024377	 -0.172090442
C	 0.402736024	 0.694251706	 1.035727781
H	 0.445083356	 1.233448368	 1.971877240
C	 0.277669763	 -0.694504227	 1.035302313
H	 0.225900721	 -1.232432876	 1.971875440
C	 0.217550542	 -1.388761335	 -0.172048923
H	 0.119540213	 -2.465700823	 -0.171995792
C	 0.278862128	 -0.694642700	 -1.379458099
H	 0.228256693	 -1.232693533	 -2.316036197
C	 0.403950374	 0.694089186	 -1.379946406
H	 0.447183465	 1.233201568	 -2.316106378
O	 -3.255981575	 0.669876232	 1.647608793
H	 -2.421634520	 0.678830775	 1.168124838
C	 -3.620351228	 -0.685774297	 1.824243945
H	 -4.561750124	 -0.695273421	 2.366905975
H	 -3.767049790	 -1.203633234	 0.873591165
H	 -2.882518584	 -1.241368693	 2.407651084
