18
0  1  0  1  0  1  12   6 -2.84867 -2.68480 -2.94513 -3.10900 -3.00099 -3.06398 -0.47518 -0.47486 -0.47615 -2.80579 -1.89434  2.14848 -0.45176 -2.60817
C	 0.300295354	 1.474950524	 -0.000035359
H	 0.393524392	 2.552117171	 -0.000000900
C	 0.235137336	 0.780344500	 1.207817323
H	 0.277484668	 1.319541162	 2.143966782
C	 0.110071075	 -0.608411433	 1.207391855
H	 0.058302033	 -1.146340082	 2.143964982
C	 0.049951854	 -1.302668541	 0.000040619
H	 -0.048058475	 -2.379608029	 0.000093750
C	 0.111263440	 -0.608549906	 -1.207368557
H	 0.060658005	 -1.146600739	 -2.143946655
C	 0.236351686	 0.780181980	 -1.207856864
H	 0.279584777	 1.319294362	 -2.144016836
O	 -3.657353457	 -1.055027699	 0.014377477
H	 -2.828447794	 -0.566118975	 0.016305719
C	 -3.329290696	 -2.430990971	 -0.014836821
H	 -4.265569858	 -2.982520641	 -0.015577165
H	 -2.768740420	 -2.705329112	 -0.911475560
H	 -2.750741717	 -2.738510711	 0.859324904
