18
0  1  0  1  0  1  12   6 -3.28574 -2.89496 -3.59461 -3.98539 -3.69523 -3.86598  2.07850  2.06679  2.05968 -2.95574 -4.10034  8.50614 -1.66697 -5.69457
C	 -3.394163630	 1.388985653	 0.000035418
H	 -3.487392668	 2.466152300	 0.000000959
C	 -3.329005612	 0.694379629	 -1.207817264
H	 -3.371352944	 1.233576291	 -2.143966723
C	 -3.203939351	 -0.694376304	 -1.207391796
H	 -3.152170310	 -1.232304953	 -2.143964923
C	 -3.143820130	 -1.388633412	 -0.000040560
H	 -3.045809801	 -2.465572900	 -0.000093691
C	 -3.205131716	 -0.694514777	 1.207368616
H	 -3.154526281	 -1.232565610	 2.143946714
C	 -3.330219962	 0.694217109	 1.207856923
H	 -3.373453054	 1.233329491	 2.144016895
O	 -0.109275525	 0.669876232	 0.073314809
H	 -0.943622581	 0.678830775	 0.552798764
C	 0.255094128	 -0.685774297	 -0.103320343
H	 1.196493024	 -0.695273421	 -0.645982373
H	 0.401792690	 -1.203633234	 0.847332438
H	 -0.482738516	 -1.241368693	 -0.686727481
