18
0  1  0  1  0  1  12   6 -2.69567 -2.58546 -2.78477 -2.89499 -2.82378 -2.86471 -1.23998 -1.24342 -1.24285 -2.64603 -1.76243  1.35508 -0.51119 -1.72749
C	 0.480789794	 1.216780269	 -0.000036259
H	 0.574018832	 2.293946916	 -0.000001800
C	 0.415631776	 0.522174245	 1.207816423
H	 0.457979108	 1.061370907	 2.143965882
C	 0.290565515	 -0.866581688	 1.207390955
H	 0.238796473	 -1.404510337	 2.143964082
C	 0.230446294	 -1.560838796	 0.000039719
H	 0.132435965	 -2.637778284	 0.000092850
C	 0.291757880	 -0.866720161	 -1.207369457
H	 0.241152445	 -1.404770994	 -2.143947555
C	 0.416846126	 0.522011725	 -1.207857764
H	 0.460079217	 1.061124107	 -2.144017736
O	 -3.057607033	 2.215287367	 0.014377477
H	 -2.219746827	 1.741888368	 0.016305719
C	 -4.085194801	 1.243195047	 -0.014836821
H	 -5.030973087	 1.778271751	 -0.015577165
H	 -4.042503462	 0.620575197	 -0.911475560
H	 -4.062240218	 0.588397063	 0.859324904
