18
0  1  0  1  0  1  12   6 -2.75251 -2.16506 -3.23921 -3.82666 -3.37402 -3.63338  4.74323  4.73080  4.73631 -2.04580 -6.66121 15.51878 -2.97217 -7.93120
C	 0.731532067	 1.015570374	 0.716432026
H	 1.406799148	 1.859959585	 0.717364248
C	 1.238400678	 -0.283067025	 0.763932708
H	 2.306698858	 -0.444884874	 0.802091970
C	 0.367103435	 -1.371695848	 0.767564741
H	 0.760444825	 -2.378197270	 0.805695122
C	 -1.010422746	 -1.162359092	 0.723929868
H	 -1.685873425	 -2.006844876	 0.727780635
C	 -1.517563224	 0.135445107	 0.680231969
H	 -2.586164148	 0.298045805	 0.650378633
C	 -0.646992264	 1.224626523	 0.676543361
H	 -1.039978724	 2.231402213	 0.647028847
O	 0.046311350	 0.305790667	 3.693689487
H	 0.132411565	 0.355663758	 2.736495942
C	 -0.849839249	 -0.751823406	 3.976744526
H	 -0.945559943	 -0.808557990	 5.057680662
H	 -1.841988837	 -0.580125666	 3.552954322
H	 -0.483378931	 -1.714864475	 3.613833010
