18
0  1  0  1  0  1  12   6 30.74833 32.39057 29.46116 27.81892 29.27243 28.42082 51.38143 51.37093 51.34415 31.39738 -36.08592 97.28148 -9.21632 -20.58186
C	 -2.436405803	 1.389175023	 0.000029060
H	 -2.529634841	 2.466341670	 -0.000005399
C	 -2.371247785	 0.694568999	 -1.207823622
H	 -2.413595117	 1.233765661	 -2.143973081
C	 -2.246181524	 -0.694186934	 -1.207398154
H	 -2.194412483	 -1.232115583	 -2.143971281
C	 -2.186062303	 -1.388444042	 -0.000046918
H	 -2.088051974	 -2.465383530	 -0.000100049
C	 -2.247373889	 -0.694325407	 1.207362258
H	 -2.196768454	 -1.232376240	 2.143940356
C	 -2.372462135	 0.694406479	 1.207850565
H	 -2.415695227	 1.233518861	 2.144010537
O	 0.518071966	 0.665895904	 -0.014377477
H	 -0.310833697	 1.154804627	 -0.016305719
C	 0.190009206	 -0.710067369	 0.014836821
H	 1.126288368	 -1.261597039	 0.015577165
H	 -0.370541070	 -0.984405509	 0.911475560
H	 -0.388539774	 -1.017587108	 -0.859324904
