18
0  1  0  1  0  1  12   6 -3.12761 -2.92375 -3.25381 -3.45767 -3.32270 -3.40272 -0.62001 -0.63623 -0.64095 -3.02523 -1.79818  2.36559 -0.80109 -2.79155
C	 -3.753659689	 1.388907821	 0.000035359
H	 -3.846888727	 2.466074468	 0.000000900
C	 -3.688501671	 0.694301797	 -1.207817323
H	 -3.730849003	 1.233498459	 -2.143966782
C	 -3.563435410	 -0.694454136	 -1.207391855
H	 -3.511666369	 -1.232382785	 -2.143964982
C	 -3.503316189	 -1.388711244	 -0.000040619
H	 -3.405305860	 -2.465650732	 -0.000093750
C	 -3.564627775	 -0.694592609	 1.207368557
H	 -3.514022340	 -1.232643442	 2.143946655
C	 -3.689716021	 0.694139277	 1.207856864
H	 -3.732949113	 1.233251659	 2.144016836
O	 -0.223174779	 0.494363765	 -0.014377477
H	 -1.061034985	 0.020964765	 -0.016305719
C	 0.804412990	 -0.477728556	 0.014836821
H	 1.750191276	 0.057348148	 0.015577165
H	 0.761721651	 -1.100348405	 0.911475560
H	 0.781458406	 -1.132526539	 -0.859324904
