18
0  1  0  1  0  1  12   6 -3.90730 -3.46561 -4.25356 -4.69525 -4.37333 -4.55932  1.74905  1.73326  1.73354 -3.44182 -4.63882  9.21336 -1.94675 -6.06961
C	 0.745640622	 1.023422716	 0.545102210
H	 1.420907703	 1.867811927	 0.546034432
C	 1.252509233	 -0.275214683	 0.592602892
H	 2.320807413	 -0.437032532	 0.630762154
C	 0.381211990	 -1.363843506	 0.596234925
H	 0.774553380	 -2.370344928	 0.634365306
C	 -0.996314191	 -1.154506750	 0.552600052
H	 -1.671764870	 -1.998992534	 0.556450819
C	 -1.503454669	 0.143297449	 0.508902153
H	 -2.572055593	 0.305898147	 0.479048817
C	 -0.632883709	 1.232478865	 0.505213545
H	 -1.025870169	 2.239254555	 0.475699031
O	 0.046311350	 0.305790667	 3.693689487
H	 0.132411565	 0.355663758	 2.736495942
C	 -0.849839249	 -0.751823406	 3.976744526
H	 -0.945559943	 -0.808557990	 5.057680662
H	 -1.841988837	 -0.580125666	 3.552954322
H	 -0.483378931	 -1.714864475	 3.613833010
