18
0  1  0  1  0  1  12   6 -1.91027 -1.44667 -2.09185 -2.55545 -2.20145 -2.41181  4.06399  4.05146  4.03793 -1.46156 -5.61637 11.95641 -1.50486 -6.29675
C	 -0.220404807	 1.216927989	 -0.000032659
H	 -0.127175769	 2.294094636	 0.000001800
C	 -0.285562825	 0.522321965	 1.207820023
H	 -0.243215493	 1.061518627	 2.143969482
C	 -0.410629086	 -0.866433968	 1.207394555
H	 -0.462398128	 -1.404362617	 2.143967682
C	 -0.470748307	 -1.560691076	 0.000043319
H	 -0.568758636	 -2.637630564	 0.000096450
C	 -0.409436721	 -0.866572441	 -1.207365857
H	 -0.460042156	 -1.404623274	 -2.143943955
C	 -0.284348475	 0.522159445	 -1.207854164
H	 -0.241115384	 1.061271827	 -2.144014136
O	 -3.657353457	 -1.055027699	 0.014377477
H	 -2.828447794	 -0.566118975	 0.016305719
C	 -3.329290696	 -2.430990971	 -0.014836821
H	 -4.265569858	 -2.982520641	 -0.015577165
H	 -2.768740420	 -2.705329112	 -0.911475560
H	 -2.750741717	 -2.738510711	 0.859324904
