19
0  1  0  1  0  1  12   7 -2.32527 -2.15470 -2.53435 -2.70491 -2.59461 -2.65850  0.27832  0.27227  0.27198 -2.22287 -2.01061  3.22642 -0.62835 -2.81033
C	 0.271565562	 -0.658352975	 1.198410086
H	 0.482012164	 -1.169196515	 2.128056100
C	 0.257946541	 -1.370286648	 -0.000151238
H	 0.454536284	 -2.433537728	 -0.000309939
C	 -0.014621160	 -0.711815104	 -1.198617726
H	 -0.030722678	 -1.264964450	 -2.127520466
C	 -0.271339159	 0.658353200	 -1.198257249
H	 -0.483071386	 1.168581505	 -2.127916106
C	 -0.256486991	 1.370382042	 0.000115743
H	 -0.456061343	 2.433186306	 0.000000000
C	 0.013696850	 0.711887719	 1.198446960
H	 0.024231150	 1.263926181	 2.128327025
N	 -3.172290580	 -2.271481775	 0.210675721
H	 -2.276777835	 -1.799992269	 0.166309254
H	 -3.322343261	 -2.472884615	 1.190870296
C	 -4.213461988	 -1.359114875	 -0.257636779
H	 -5.181605222	 -1.852211555	 -0.192321338
H	 -4.277777923	 -0.410025763	 0.284389667
H	 -4.038588598	 -1.129337931	 -1.306860430
