19
0  1  0  1  0  1  12   7 -2.71063 -2.35039 -3.11498 -3.47522 -3.22063 -3.36847  2.58459  2.57928  2.57772 -2.56645 -4.00486  8.29362 -1.17687 -5.67835
C	 -3.684805603	 -0.658376160	 -1.198409782
H	 -3.895252205	 -1.169219700	 -2.128055796
C	 -3.671186583	 -1.370309833	 0.000151542
H	 -3.867776326	 -2.433560913	 0.000310243
C	 -3.398618881	 -0.711838289	 1.198618030
H	 -3.382517363	 -1.264987635	 2.127520770
C	 -3.141900882	 0.658330015	 1.198257553
H	 -2.930168655	 1.168558320	 2.127916410
C	 -3.156753050	 1.370358857	 -0.000115439
H	 -2.957178698	 2.433163121	 0.000000304
C	 -3.426936892	 0.711864534	 -1.198446656
H	 -3.437471192	 1.263902996	 -2.128326721
N	 -0.192147560	 -0.663193764	 -0.080799310
H	 -1.045759831	 -0.702628247	 0.463263947
H	 -0.482495351	 -0.762587399	 -1.044998139
C	 0.427820789	 0.647524853	 0.102022492
H	 1.334787620	 0.704562219	 -0.497034827
H	 -0.205923125	 1.501618102	 -0.157963518
H	 0.721781236	 0.759080829	 1.143843464
