19
0  1  0  1  0  1  12   7  5.96692  6.94367  4.78995  3.81320  4.61861  4.15661 19.12089 19.11701 19.12561  6.89284 -14.60156 39.71883 -4.62883 -13.59560
C	 0.622388947	 1.023489538	 1.038008693
H	 1.212022517	 1.927144278	 0.965683236
C	 1.248260932	 -0.221672581	 1.000063525
H	 2.323217085	 -0.284278860	 0.901574264
C	 0.488092126	 -1.386752951	 1.094567315
H	 0.973992937	 -2.352376304	 1.070782873
C	 -0.897478648	 -1.306224371	 1.224852467
H	 -1.486627237	 -2.210054023	 1.298506724
C	 -1.523337670	 -0.061131053	 1.261548524
H	 -2.598158833	 0.000900214	 1.363009989
C	 -0.763387230	 1.103598582	 1.169396522
H	 -1.248661625	 2.069607388	 1.198894297
N	 0.274645262	 -0.223105490	 3.863180091
H	 0.409263619	 -0.179064988	 2.860108734
H	 0.416137833	 0.722041246	 4.195652368
C	 -1.101454213	 -0.629488899	 4.140615883
H	 -1.259330779	 -0.658035906	 5.217171419
H	 -1.872756400	 0.010891890	 3.700496885
H	 -1.256146194	 -1.639056701	 3.764994183
