19
0  1  0  1  0  1  12   7 -1.55320 -1.47743 -1.67932 -1.75509 -1.71337 -1.73662 -0.03123 -0.02826 -0.02620 -1.59789 -0.64076  0.81425 -0.12267 -1.64870
C	 -4.267481072	 -0.658311625	 -1.198409415
H	 -4.477927674	 -1.169155165	 -2.128055429
C	 -4.253862052	 -1.370245298	 0.000151909
H	 -4.450451795	 -2.433496378	 0.000310610
C	 -3.981294350	 -0.711773754	 1.198618397
H	 -3.965192832	 -1.264923100	 2.127521137
C	 -3.724576351	 0.658394550	 1.198257920
H	 -3.512844124	 1.168622855	 2.127916777
C	 -3.739428519	 1.370423392	 -0.000115072
H	 -3.539854167	 2.433227656	 0.000000671
C	 -4.009612361	 0.711929069	 -1.198446289
H	 -4.020146661	 1.263967531	 -2.128326354
N	 0.541087385	 -0.675993863	 -0.210675721
H	 -0.314990877	 -1.215785897	 -0.166309254
H	 0.790533700	 -0.646745850	 -1.190870296
C	 0.271540176	 0.681870476	 0.257636779
H	 1.182646044	 1.273758771	 0.192321338
H	 -0.518237139	 1.212114265	 -0.284389667
H	 -0.014889190	 0.645314149	 1.306860430
