19
0  1  0  1  0  1  12   7 -1.77275 -1.66429 -1.92853 -2.03699 -1.97192 -2.00904  0.28352  0.28693  0.28813 -1.80390 -0.92166  1.50819 -0.19478 -2.19565
C	 -4.068313661	 -0.658332300	 -1.198409751
H	 -4.278760263	 -1.169175840	 -2.128055765
C	 -4.054694641	 -1.370265973	 0.000151573
H	 -4.251284384	 -2.433517053	 0.000310274
C	 -3.782126939	 -0.711794429	 1.198618061
H	 -3.766025421	 -1.264943775	 2.127520801
C	 -3.525408940	 0.658373875	 1.198257584
H	 -3.313676713	 1.168602180	 2.127916441
C	 -3.540261108	 1.370402717	 -0.000115408
H	 -3.340686756	 2.433206981	 0.000000335
C	 -3.810444950	 0.711908394	 -1.198446625
H	 -3.820979250	 1.263946856	 -2.128326690
N	 0.541087385	 -0.675993863	 -0.210675721
H	 -0.314990877	 -1.215785897	 -0.166309254
H	 0.790533700	 -0.646745850	 -1.190870296
C	 0.271540176	 0.681870476	 0.257636779
H	 1.182646044	 1.273758771	 0.192321338
H	 -0.518237139	 1.212114265	 -0.284389667
H	 -0.014889190	 0.645314149	 1.306860430
