19
0  1  0  1  0  1  12   7  5.17547  5.86421  4.50624  3.81750  4.37734  4.04803 15.13789 15.13077 15.11737  5.72475 -11.10720 29.97630 -3.03039 -10.11397
C	 -3.072476606	 -0.658435675	 -1.198411428
H	 -3.282923208	 -1.169279215	 -2.128057442
C	 -3.058857586	 -1.370369348	 0.000149896
H	 -3.255447329	 -2.433620428	 0.000308597
C	 -2.786289884	 -0.711897804	 1.198616384
H	 -2.770188366	 -1.265047150	 2.127519124
C	 -2.529571885	 0.658270500	 1.198255907
H	 -2.317839658	 1.168498805	 2.127914764
C	 -2.544424053	 1.370299342	 -0.000117085
H	 -2.344849701	 2.433103606	 -0.000001342
C	 -2.814607895	 0.711805019	 -1.198448302
H	 -2.825142195	 1.263843481	 -2.128328367
N	 0.541087385	 -0.675993863	 -0.210675721
H	 -0.314990877	 -1.215785897	 -0.166309254
H	 0.790533700	 -0.646745850	 -1.190870296
C	 0.271540176	 0.681870476	 0.257636779
H	 1.182646044	 1.273758771	 0.192321338
H	 -0.518237139	 1.212114265	 -0.284389667
H	 -0.014889190	 0.645314149	 1.306860430
