19
0  1  0  1  0  1  12   7 -2.05739 -1.79785 -2.23485 -2.49438 -2.31415 -2.41999  1.94020  1.93935  1.93546 -1.90666 -2.64490  5.59004 -0.64932 -4.20248
C	 0.084625942	 -0.568434133	 1.198410421
H	 0.295072544	 -1.079277673	 2.128056435
C	 0.071006921	 -1.280367806	 -0.000150903
H	 0.267596664	 -2.343618886	 -0.000309604
C	 -0.201560780	 -0.621896262	 -1.198617391
H	 -0.217662298	 -1.175045608	 -2.127520131
C	 -0.458278779	 0.748272042	 -1.198256914
H	 -0.670011006	 1.258500347	 -2.127915771
C	 -0.443426611	 1.460300884	 0.000116078
H	 -0.643000963	 2.523105148	 0.000000335
C	 -0.173242770	 0.801806561	 1.198447295
H	 -0.162708470	 1.353845023	 2.128327360
N	 -3.894112246	 1.122796481	 0.210675721
H	 -3.038033984	 0.583004447	 0.166309254
H	 -4.143558562	 1.152044494	 1.190870296
C	 -3.624565037	 2.480660820	 -0.257636779
H	 -4.535670905	 3.072549115	 -0.192321338
H	 -2.834787723	 3.010904609	 0.284389667
H	 -3.338135671	 2.444104493	 -1.306860430
