19
0  1  0  1  0  1  12   7 33.31574 35.25626 31.16874 29.22822 30.94119 29.93652 56.50781 56.50688 56.47285 33.56117 -38.10539 107.46843 -11.98417 -23.81770
C	 0.587425804	 0.991088287	 1.394592419
H	 1.177059374	 1.894743027	 1.322266962
C	 1.213297789	 -0.254073832	 1.356647251
H	 2.288253942	 -0.316680111	 1.258157990
C	 0.453128983	 -1.419154202	 1.451151041
H	 0.939029794	 -2.384777555	 1.427366599
C	 -0.932441791	 -1.338625622	 1.581436193
H	 -1.521590380	 -2.242455274	 1.655090450
C	 -1.558300813	 -0.093532304	 1.618132250
H	 -2.633121976	 -0.031501037	 1.719593715
C	 -0.798350373	 1.071197331	 1.525980248
H	 -1.283624768	 2.037206137	 1.555478023
N	 0.274645262	 -0.223105490	 3.863180091
H	 0.409263619	 -0.179064988	 2.860108734
H	 0.416137833	 0.722041246	 4.195652368
C	 -1.101454213	 -0.629488899	 4.140615883
H	 -1.259330779	 -0.658035906	 5.217171419
H	 -1.872756400	 0.010891890	 3.700496885
H	 -1.256146194	 -1.639056701	 3.764994183
