19
0  1  0  1  0  1  12   7 -2.48505 -2.28900 -2.68804 -2.88409 -2.75355 -2.82947  0.61533  0.61207  0.61099 -2.35882 -2.09959  3.58956 -0.57024 -3.27855
C	 0.271565562	 -0.658352975	 1.198410086
H	 0.482012164	 -1.169196515	 2.128056100
C	 0.257946541	 -1.370286648	 -0.000151238
H	 0.454536284	 -2.433537728	 -0.000309939
C	 -0.014621160	 -0.711815104	 -1.198617726
H	 -0.030722678	 -1.264964450	 -2.127520466
C	 -0.271339159	 0.658353200	 -1.198257249
H	 -0.483071386	 1.168581505	 -2.127916106
C	 -0.256486991	 1.370382042	 0.000115743
H	 -0.456061343	 2.433186306	 0.000000000
C	 0.013696850	 0.711887719	 1.198446960
H	 0.024231150	 1.263926181	 2.128327025
N	 -3.602573851	 -0.663193764	 -1.514688602
H	 -2.704595113	 -0.702628247	 -1.047470319
H	 -4.292420636	 -0.762587399	 -0.781140626
C	 -3.754229700	 0.647524853	 -2.143007843
H	 -4.726511972	 0.704562219	 -2.628935499
H	 -3.662512233	 1.501618102	 -1.464176510
H	 -2.998966496	 0.759080829	 -2.918495544
