19
0  1  0  1  0  1  12   7 34.27789 36.02727 32.76197 31.01259 32.56317 31.65064 54.81260 54.80269 54.76453 34.99959 -37.46882 104.83105 -11.14497 -21.21767
C	 -0.830419814	 -0.658492084	 0.658778300
H	 -0.619973212	 -1.169335624	 1.588424314
C	 -0.844038835	 -1.370425757	 -0.539783024
H	 -0.647449092	 -2.433676837	 -0.539941725
C	 -1.116606536	 -0.711954213	 -1.738249512
H	 -1.132708054	 -1.265103559	 -2.667152252
C	 -1.373324535	 0.658214091	 -1.737889035
H	 -1.585056762	 1.168442396	 -2.667547892
C	 -1.358472367	 1.370242933	 -0.539516043
H	 -1.558046719	 2.433047197	 -0.539631786
C	 -1.088288526	 0.711748610	 0.658815174
H	 -1.077754226	 1.263787072	 1.588695239
N	 -3.602573851	 -0.663193764	 -1.514688602
H	 -2.704595113	 -0.702628247	 -1.047470319
H	 -4.292420636	 -0.762587399	 -0.781140626
C	 -3.754229700	 0.647524853	 -2.143007843
H	 -4.726511972	 0.704562219	 -2.628935499
H	 -3.662512233	 1.501618102	 -1.464176510
H	 -2.998966496	 0.759080829	 -2.918495544
