19
0  1  0  1  0  1  12   7  5.89432  6.70558  4.92310  4.11184  4.78404  4.40170 16.45063 16.45131 16.46618  6.42192 -11.52265 33.50640 -4.35092 -11.21091
C	 -3.081343459	 -0.658430913	 -1.198411428
H	 -3.291790061	 -1.169274453	 -2.128057442
C	 -3.067724439	 -1.370364586	 0.000149896
H	 -3.264314182	 -2.433615666	 0.000308597
C	 -2.795156737	 -0.711893042	 1.198616384
H	 -2.779055219	 -1.265042388	 2.127519124
C	 -2.538438738	 0.658275262	 1.198255907
H	 -2.326706511	 1.168503567	 2.127914764
C	 -2.553290906	 1.370304104	 -0.000117085
H	 -2.353716554	 2.433108368	 -0.000001342
C	 -2.823474748	 0.711809781	 -1.198448302
H	 -2.834009048	 1.263848243	 -2.128328367
N	 -0.165977129	 -0.472691431	 -0.210675721
H	 -1.061489874	 -0.001201925	 -0.166309254
H	 -0.015924449	 -0.674094270	 -1.190870296
C	 0.875194279	 0.439675469	 0.257636779
H	 1.843337513	 -0.053421211	 0.192321338
H	 0.939510213	 1.388764582	 -0.284389667
H	 0.700320889	 0.669452413	 1.306860430
