19
0  1  0  1  0  1  12   7 -2.29918 -2.10794 -2.50212 -2.69337 -2.56886 -2.64171  0.64419  0.63993  0.63786 -2.24655 -1.93914  3.38805 -0.53271 -3.16275
C	 0.271565562	 -0.658352975	 1.198410086
H	 0.482012164	 -1.169196515	 2.128056100
C	 0.257946541	 -1.370286648	 -0.000151238
H	 0.454536284	 -2.433537728	 -0.000309939
C	 -0.014621160	 -0.711815104	 -1.198617726
H	 -0.030722678	 -1.264964450	 -2.127520466
C	 -0.271339159	 0.658353200	 -1.198257249
H	 -0.483071386	 1.168581505	 -2.127916106
C	 -0.256486991	 1.370382042	 0.000115743
H	 -0.456061343	 2.433186306	 0.000000000
C	 0.013696850	 0.711887719	 1.198446960
H	 0.024231150	 1.263926181	 2.128327025
N	 -3.281726581	 -0.663193764	 1.879589654
H	 -2.428114310	 -0.702628247	 1.335526397
H	 -2.991378791	 -0.762587399	 2.843788483
C	 -3.901694930	 0.647524853	 1.696767852
H	 -4.808661761	 0.704562219	 2.295825171
H	 -3.267951017	 1.501618102	 1.956753862
H	 -4.195655377	 0.759080829	 0.654946880
