19
0  1  0  1  0  1  12   7 -3.05986 -2.85029 -3.33083 -3.54040 -3.40957 -3.48590  0.18264  0.17500  0.17336 -3.02213 -1.81129  2.78560 -0.48903 -3.50740
C	 0.709796806	 1.104492666	 0.146549378
H	 1.299430376	 2.008147406	 0.074223921
C	 1.335668791	 -0.140669453	 0.108604210
H	 2.410624944	 -0.203275732	 0.010114949
C	 0.575499985	 -1.305749823	 0.203108000
H	 1.061400796	 -2.271373176	 0.179323558
C	 -0.810070789	 -1.225221243	 0.333393152
H	 -1.399219378	 -2.129050895	 0.407047409
C	 -1.435929811	 0.019872075	 0.370089209
H	 -2.510750974	 0.081903342	 0.471550674
C	 -0.675979371	 1.184601710	 0.277937207
H	 -1.161253766	 2.150610516	 0.307434982
N	 0.274645262	 -0.223105490	 3.863180091
H	 0.409263619	 -0.179064988	 2.860108734
H	 0.416137833	 0.722041246	 4.195652368
C	 -1.101454213	 -0.629488899	 4.140615883
H	 -1.259330779	 -0.658035906	 5.217171419
H	 -1.872756400	 0.010891890	 3.700496885
H	 -1.256146194	 -1.639056701	 3.764994183
