19
0  1  0  1  0  1  12   7 26.23488 27.78336 24.71020 23.16173 24.51418 23.72043 44.82638 44.81584 44.78773 26.30828 -33.49803 88.98114 -10.09734 -19.07749
C	 -0.797366354	 -0.658492084	 1.738045363
H	 -0.586919752	 -1.169335624	 2.667691377
C	 -0.810985375	 -1.370425757	 0.539484039
H	 -0.614395632	 -2.433676837	 0.539325338
C	 -1.083553076	 -0.711954213	 -0.658982449
H	 -1.099654594	 -1.265103559	 -1.587885189
C	 -1.340271075	 0.658214091	 -0.658621972
H	 -1.552003302	 1.168442396	 -1.588280829
C	 -1.325418907	 1.370242933	 0.539751020
H	 -1.524993259	 2.433047197	 0.539635277
C	 -1.055235066	 0.711748610	 1.738082237
H	 -1.044700766	 1.263787072	 2.667962302
N	 -3.281726581	 -0.663193764	 1.879589654
H	 -2.428114310	 -0.702628247	 1.335526397
H	 -2.991378791	 -0.762587399	 2.843788483
C	 -3.901694930	 0.647524853	 1.696767852
H	 -4.808661761	 0.704562219	 2.295825171
H	 -3.267951017	 1.501618102	 1.956753862
H	 -4.195655377	 0.759080829	 0.654946880
