19
0  1  0  1  0  1  12   7 -1.19060 -0.76803 -1.68019 -2.10276 -1.78760 -1.96967  4.71098  4.70182  4.70212 -0.85897 -4.36335 11.62671 -1.83304 -6.28930
C	 -3.475244855	 -0.658391944	 -1.198410757
H	 -3.685691457	 -1.169235484	 -2.128056771
C	 -3.461625835	 -1.370325617	 0.000150567
H	 -3.658215578	 -2.433576697	 0.000309268
C	 -3.189058133	 -0.711854073	 1.198617055
H	 -3.172956615	 -1.265003419	 2.127519795
C	 -2.932340134	 0.658314231	 1.198256578
H	 -2.720607907	 1.168542536	 2.127915435
C	 -2.947192302	 1.370343073	 -0.000116414
H	 -2.747617950	 2.433147337	 -0.000000671
C	 -3.217376144	 0.711848750	 -1.198447631
H	 -3.227910444	 1.263887212	 -2.128327696
N	 -0.165977129	 -0.472691431	 -0.210675721
H	 -1.061489874	 -0.001201925	 -0.166309254
H	 -0.015924449	 -0.674094270	 -1.190870296
C	 0.875194279	 0.439675469	 0.257636779
H	 1.843337513	 -0.053421211	 0.192321338
H	 0.939510213	 1.388764582	 -0.284389667
H	 0.700320889	 0.669452413	 1.306860430
