19
0  1  0  1  0  1  12   7 -1.17266 -0.79594 -1.40655 -1.78327 -1.50505 -1.66894  4.32507  4.32102  4.31380 -0.87446 -4.30212 10.24463 -1.07427 -5.74270
C	 -0.102313677	 -0.478515291	 1.198410757
H	 0.108132925	 -0.989358831	 2.128056771
C	 -0.115932698	 -1.190448964	 -0.000150567
H	 0.080657045	 -2.253700044	 -0.000309268
C	 -0.388500399	 -0.531977420	 -1.198617055
H	 -0.404601917	 -1.085126766	 -2.127519795
C	 -0.645218398	 0.838190884	 -1.198256578
H	 -0.856950625	 1.348419189	 -2.127915435
C	 -0.630366230	 1.550219726	 0.000116414
H	 -0.829940582	 2.613023990	 0.000000671
C	 -0.360182389	 0.891725403	 1.198447631
H	 -0.349648089	 1.443763865	 2.128327696
N	 -3.894112246	 1.122796481	 0.210675721
H	 -3.038033984	 0.583004447	 0.166309254
H	 -4.143558562	 1.152044494	 1.190870296
C	 -3.624565037	 2.480660820	 -0.257636779
H	 -4.535670905	 3.072549115	 -0.192321338
H	 -2.834787723	 3.010904609	 0.284389667
H	 -3.338135671	 2.444104493	 -1.306860430
