19
0  1  0  1  0  1  12   7 -2.14460 -1.83652 -2.49333 -2.80142 -2.58591 -2.71182  2.26462  2.25291  2.24978 -1.95158 -2.74984  6.68480 -1.17847 -4.70806
C	 -3.672195552	 -0.658372460	 -1.198410421
H	 -3.882642154	 -1.169216000	 -2.128056435
C	 -3.658576532	 -1.370306133	 0.000150903
H	 -3.855166275	 -2.433557213	 0.000309604
C	 -3.386008830	 -0.711834589	 1.198617391
H	 -3.369907312	 -1.264983935	 2.127520131
C	 -3.129290831	 0.658333715	 1.198256914
H	 -2.917558604	 1.168562020	 2.127915771
C	 -3.144142999	 1.370362557	 -0.000116078
H	 -2.944568647	 2.433166821	 -0.000000335
C	 -3.414326841	 0.711868234	 -1.198447295
H	 -3.424861141	 1.263906696	 -2.128327360
N	 -0.165977129	 -0.472691431	 -0.210675721
H	 -1.061489874	 -0.001201925	 -0.166309254
H	 -0.015924449	 -0.674094270	 -1.190870296
C	 0.875194279	 0.439675469	 0.257636779
H	 1.843337513	 -0.053421211	 0.192321338
H	 0.939510213	 1.388764582	 -0.284389667
H	 0.700320889	 0.669452413	 1.306860430
