19
0  1  0  1  0  1  12   7 -1.49648 -1.11753 -1.87156 -2.25051 -1.97472 -2.13484  3.90882  3.89994  3.89832 -1.22712 -4.65267 10.50605 -1.38852 -5.69198
C	 -0.084745077	 -0.658399345	 1.378288512
H	 0.125701525	 -1.169242885	 2.307934526
C	 -0.098364098	 -1.370333018	 0.179727188
H	 0.098225645	 -2.433584098	 0.179568487
C	 -0.370931799	 -0.711861474	 -1.018739300
H	 -0.387033317	 -1.265010820	 -1.947642040
C	 -0.627649798	 0.658306830	 -1.018378823
H	 -0.839382025	 1.168535135	 -1.948037680
C	 -0.612797630	 1.370335672	 0.179994169
H	 -0.812371982	 2.433139936	 0.179878426
C	 -0.342613789	 0.711841349	 1.378325386
H	 -0.332079489	 1.263879811	 2.308205451
N	 -3.281726581	 -0.663193764	 1.879589654
H	 -2.428114310	 -0.702628247	 1.335526397
H	 -2.991378791	 -0.762587399	 2.843788483
C	 -3.901694930	 0.647524853	 1.696767852
H	 -4.808661761	 0.704562219	 2.295825171
H	 -3.267951017	 1.501618102	 1.956753862
H	 -4.195655377	 0.759080829	 0.654946880
