19
0  1  0  1  0  1  12   7 -2.38353 -2.17278 -2.67279 -2.88354 -2.74595 -2.82761  1.20543  1.20334  1.19831 -2.32503 -1.74737  3.65075 -0.50633 -3.72208
C	 -3.869146250	 -0.658352975	 -1.198410086
H	 -4.079592852	 -1.169196515	 -2.128056100
C	 -3.855527230	 -1.370286648	 0.000151238
H	 -4.052116973	 -2.433537728	 0.000309939
C	 -3.582959528	 -0.711815104	 1.198617726
H	 -3.566858010	 -1.264964450	 2.127520466
C	 -3.326241529	 0.658353200	 1.198257249
H	 -3.114509302	 1.168581505	 2.127916106
C	 -3.341093697	 1.370382042	 -0.000115743
H	 -3.141519345	 2.433186306	 -0.000000000
C	 -3.611277539	 0.711887719	 -1.198446960
H	 -3.621811839	 1.263926181	 -2.128327025
N	 0.063819766	 -0.663193764	 -0.284101742
H	 -0.834158972	 -0.702628247	 -0.751320025
H	 0.753666550	 -0.762587399	 -1.017649719
C	 0.215475615	 0.647524853	 0.344217499
H	 1.187757887	 0.704562219	 0.830145155
H	 0.123758147	 1.501618102	 -0.334613835
H	 -0.539787589	 0.759080829	 1.119705200
