19
0  1  0  1  0  1  12   7 -1.86590 -1.77146 -1.99163 -2.08607 -2.03108 -2.06299 -0.24400 -0.24352 -0.24382 -1.89337 -0.94819  1.06358 -0.22158 -1.78718
C	 0.627876201	 -0.658306605	 1.018531660
H	 0.838322803	 -1.169150145	 1.948177674
C	 0.614257180	 -1.370240278	 -0.180029664
H	 0.810846923	 -2.433491358	 -0.180188365
C	 0.341689479	 -0.711768734	 -1.378496152
H	 0.325587961	 -1.264918080	 -2.307398892
C	 0.084971480	 0.658399570	 -1.378135675
H	 -0.126760747	 1.168627875	 -2.307794532
C	 0.099823648	 1.370428412	 -0.179762683
H	 -0.099750704	 2.433232676	 -0.179878426
C	 0.370007489	 0.711934089	 1.018568534
H	 0.380541789	 1.263972551	 1.948448599
N	 -3.281726581	 -0.663193764	 1.879589654
H	 -2.428114310	 -0.702628247	 1.335526397
H	 -2.991378791	 -0.762587399	 2.843788483
C	 -3.901694930	 0.647524853	 1.696767852
H	 -4.808661761	 0.704562219	 2.295825171
H	 -3.267951017	 1.501618102	 1.956753862
H	 -4.195655377	 0.759080829	 0.654946880
