19
0  1  0  1  0  1  12   7 -2.25041 -2.10235 -2.48133 -2.62939 -2.53813 -2.59205  0.43599  0.43722  0.43447 -2.25707 -1.16721  2.04666 -0.31957 -2.81696
C	 -4.055751809	 -0.658329790	 -1.198409200
H	 -4.266198411	 -1.169173330	 -2.128055214
C	 -4.042132789	 -1.370263463	 0.000152124
H	 -4.238722532	 -2.433514543	 0.000310825
C	 -3.769565087	 -0.711791919	 1.198618612
H	 -3.753463569	 -1.264941265	 2.127521352
C	 -3.512847088	 0.658376385	 1.198258135
H	 -3.301114861	 1.168604690	 2.127916992
C	 -3.527699256	 1.370405227	 -0.000114857
H	 -3.328124904	 2.433209491	 0.000000886
C	 -3.797883098	 0.711910904	 -1.198446074
H	 -3.808417398	 1.263949366	 -2.128326139
N	 0.063819766	 -0.663193764	 -0.284101742
H	 -0.834158972	 -0.702628247	 -0.751320025
H	 0.753666550	 -0.762587399	 -1.017649719
C	 0.215475615	 0.647524853	 0.344217499
H	 1.187757887	 0.704562219	 0.830145155
H	 0.123758147	 1.501618102	 -0.334613835
H	 -0.539787589	 0.759080829	 1.119705200
