19
0  1  0  1  0  1  12   7 -1.74523 -1.51963 -1.99950 -2.22510 -2.06931 -2.16036  2.07532  2.07754  2.07520 -1.67092 -2.24740  5.09191 -0.54406 -3.97137
C	 -3.669978839	 -0.658373650	 -1.198410421
H	 -3.880425441	 -1.169217190	 -2.128056435
C	 -3.656359819	 -1.370307323	 0.000150903
H	 -3.852949562	 -2.433558403	 0.000309604
C	 -3.383792117	 -0.711835779	 1.198617391
H	 -3.367690599	 -1.264985125	 2.127520131
C	 -3.127074118	 0.658332525	 1.198256914
H	 -2.915341891	 1.168560830	 2.127915771
C	 -3.141926286	 1.370361367	 -0.000116078
H	 -2.942351934	 2.433165631	 -0.000000335
C	 -3.412110128	 0.711867044	 -1.198447295
H	 -3.422644428	 1.263905506	 -2.128327360
N	 0.541087385	 -0.675993863	 -0.210675721
H	 -0.314990877	 -1.215785897	 -0.166309254
H	 0.790533700	 -0.646745850	 -1.190870296
C	 0.271540176	 0.681870476	 0.257636779
H	 1.182646044	 1.273758771	 0.192321338
H	 -0.518237139	 1.212114265	 -0.284389667
H	 -0.014889190	 0.645314149	 1.306860430
