19
0  1  0  1  0  1  12   7 -2.00577 -1.91127 -2.13305 -2.22755 -2.17069 -2.20350 -0.33685 -0.33563 -0.33549 -2.00135 -1.05083  1.09882 -0.22643 -1.82291
C	 0.638894021	 -0.658306605	 1.378287348
H	 0.849340623	 -1.169150145	 2.307933362
C	 0.625275000	 -1.370240278	 0.179726024
H	 0.821864743	 -2.433491358	 0.179567323
C	 0.352707299	 -0.711768734	 -1.018740464
H	 0.336605781	 -1.264918080	 -1.947643204
C	 0.095989300	 0.658399570	 -1.018379987
H	 -0.115742927	 1.168627875	 -1.948038844
C	 0.110841468	 1.370428412	 0.179993005
H	 -0.088732884	 2.433232676	 0.179877262
C	 0.381025309	 0.711934089	 1.378324222
H	 0.391559609	 1.263972551	 2.308204287
N	 -3.602573851	 -0.663193764	 -1.514688602
H	 -2.704595113	 -0.702628247	 -1.047470319
H	 -4.292420636	 -0.762587399	 -0.781140626
C	 -3.754229700	 0.647524853	 -2.143007843
H	 -4.726511972	 0.704562219	 -2.628935499
H	 -3.662512233	 1.501618102	 -1.464176510
H	 -2.998966496	 0.759080829	 -2.918495544
