19
0  1  0  1  0  1  12   7  6.15951  6.88615  5.30373  4.57709  5.18202  4.83358 15.62930 15.62608 15.62914  6.74845 -12.51559 34.80522 -5.65187 -9.88931
C	 -0.464374633	 -1.018188982	 1.198411428
H	 -0.253928031	 -1.529032522	 2.128057442
C	 -0.477993654	 -1.730122655	 -0.000149896
H	 -0.281403911	 -2.793373735	 -0.000308597
C	 -0.750561355	 -1.071651111	 -1.198616384
H	 -0.766662873	 -1.624800457	 -2.127519124
C	 -1.007279354	 0.298517193	 -1.198255907
H	 -1.219011581	 0.808745498	 -2.127914764
C	 -0.992427186	 1.010546035	 0.000117085
H	 -1.192001538	 2.073350299	 0.000001342
C	 -0.722243345	 0.352051712	 1.198448302
H	 -0.711709045	 0.904090174	 2.128328367
N	 -3.172290580	 -2.271481775	 0.210675721
H	 -2.276777835	 -1.799992269	 0.166309254
H	 -3.322343261	 -2.472884615	 1.190870296
C	 -4.213461988	 -1.359114875	 -0.257636779
H	 -5.181605222	 -1.852211555	 -0.192321338
H	 -4.277777923	 -0.410025763	 0.284389667
H	 -4.038588598	 -1.129337931	 -1.306860430
