19
0  1  0  1  0  1  12   7 31.54496 33.24126 29.70036 28.00405 29.50189 28.62319 53.12800 53.12205 53.09178 31.95110 -35.42459 101.54832 -12.11850 -22.05414
C	 -2.749512893	 -0.658492084	 -1.198415403
H	 -2.959959495	 -1.169335624	 -2.128061417
C	 -2.735893873	 -1.370425757	 0.000145921
H	 -2.932483616	 -2.433676837	 0.000304622
C	 -2.463326171	 -0.711954213	 1.198612409
H	 -2.447224653	 -1.265103559	 2.127515149
C	 -2.206608172	 0.658214091	 1.198251932
H	 -1.994875945	 1.168442396	 2.127910789
C	 -2.221460340	 1.370242933	 -0.000121060
H	 -2.021885988	 2.433047197	 -0.000005317
C	 -2.491644182	 0.711748610	 -1.198452277
H	 -2.502178482	 1.263787072	 -2.128332342
N	 0.063819766	 -0.663193764	 -0.284101742
H	 -0.834158972	 -0.702628247	 -0.751320025
H	 0.753666550	 -0.762587399	 -1.017649719
C	 0.215475615	 0.647524853	 0.344217499
H	 1.187757887	 0.704562219	 0.830145155
H	 0.123758147	 1.501618102	 -0.334613835
H	 -0.539787589	 0.759080829	 1.119705200
