19
0  1  0  1  0  1  12   7 -2.37041 -2.14740 -2.62525 -2.84826 -2.70170 -2.78810  0.92313  0.91241  0.90846 -2.27993 -1.78519  3.79388 -0.76017 -3.52845
C	 -3.869146250	 -0.658352975	 -1.198410086
H	 -4.079592852	 -1.169196515	 -2.128056100
C	 -3.855527230	 -1.370286648	 0.000151238
H	 -4.052116973	 -2.433537728	 0.000309939
C	 -3.582959528	 -0.711815104	 1.198617726
H	 -3.566858010	 -1.264964450	 2.127520466
C	 -3.326241529	 0.658353200	 1.198257249
H	 -3.114509302	 1.168581505	 2.127916106
C	 -3.341093697	 1.370382042	 -0.000115743
H	 -3.141519345	 2.433186306	 -0.000000000
C	 -3.611277539	 0.711887719	 -1.198446960
H	 -3.621811839	 1.263926181	 -2.128327025
N	 -0.165977129	 -0.472691431	 -0.210675721
H	 -1.061489874	 -0.001201925	 -0.166309254
H	 -0.015924449	 -0.674094270	 -1.190870296
C	 0.875194279	 0.439675469	 0.257636779
H	 1.843337513	 -0.053421211	 0.192321338
H	 0.939510213	 1.388764582	 -0.284389667
H	 0.700320889	 0.669452413	 1.306860430
