19
0  1  0  1  0  1  12   7 33.77294 35.67986 31.69949 29.79257 31.48057 30.48650 56.51597 56.50494 56.46182 33.17765 -39.84098 109.59257 -13.18576 -23.38819
C	 -2.763102370	 -0.658492084	 -1.198408260
H	 -2.973548972	 -1.169335624	 -2.128054274
C	 -2.749483350	 -1.370425757	 0.000153064
H	 -2.946073093	 -2.433676837	 0.000311765
C	 -2.476915648	 -0.711954213	 1.198619552
H	 -2.460814130	 -1.265103559	 2.127522292
C	 -2.220197649	 0.658214091	 1.198259075
H	 -2.008465422	 1.168442396	 2.127917932
C	 -2.235049817	 1.370242933	 -0.000113917
H	 -2.035475465	 2.433047197	 0.000001826
C	 -2.505233659	 0.711748610	 -1.198445134
H	 -2.515767959	 1.263787072	 -2.128325199
N	 -0.192147560	 -0.663193764	 -0.080799310
H	 -1.045759831	 -0.702628247	 0.463263947
H	 -0.482495351	 -0.762587399	 -1.044998139
C	 0.427820789	 0.647524853	 0.102022492
H	 1.334787620	 0.704562219	 -0.497034827
H	 -0.205923125	 1.501618102	 -0.157963518
H	 0.721781236	 0.759080829	 1.143843464
