19
0  1  0  1  0  1  12   7 -2.20880 -2.02977 -2.34910 -2.52813 -2.41153 -2.47963  0.70585  0.70719  0.70556 -2.14961 -1.69507  3.03733 -0.40061 -3.09126
C	 0.271565562	 -0.658352975	 1.198410086
H	 0.482012164	 -1.169196515	 2.128056100
C	 0.257946541	 -1.370286648	 -0.000151238
H	 0.454536284	 -2.433537728	 -0.000309939
C	 -0.014621160	 -0.711815104	 -1.198617726
H	 -0.030722678	 -1.264964450	 -2.127520466
C	 -0.271339159	 0.658353200	 -1.198257249
H	 -0.483071386	 1.168581505	 -2.127916106
C	 -0.256486991	 1.370382042	 0.000115743
H	 -0.456061343	 2.433186306	 0.000000000
C	 0.013696850	 0.711887719	 1.198446960
H	 0.024231150	 1.263926181	 2.128327025
N	 -3.894112246	 1.122796481	 0.210675721
H	 -3.038033984	 0.583004447	 0.166309254
H	 -4.143558562	 1.152044494	 1.190870296
C	 -3.624565037	 2.480660820	 -0.257636779
H	 -4.535670905	 3.072549115	 -0.192321338
H	 -2.834787723	 3.010904609	 0.284389667
H	 -3.338135671	 2.444104493	 -1.306860430
