19
0  1  0  1  0  1  12   7 -2.33818 -2.05820 -2.60781 -2.88779 -2.69077 -2.80529  1.90300  1.89784  1.89636 -2.08342 -3.16346  6.43455 -0.92587 -4.42863
C	 0.087901333	 -0.658376160	 1.108471455
H	 0.298347935	 -1.169219700	 2.038117469
C	 0.074282312	 -1.370309833	 -0.090089869
H	 0.270872055	 -2.433560913	 -0.090248570
C	 -0.198285389	 -0.711838289	 -1.288556357
H	 -0.214386907	 -1.264987635	 -2.217459097
C	 -0.455003388	 0.658330015	 -1.288195880
H	 -0.666735615	 1.168558320	 -2.217854737
C	 -0.440151220	 1.370358857	 -0.089822888
H	 -0.639725572	 2.433163121	 -0.089938631
C	 -0.169967379	 0.711864534	 1.108508329
H	 -0.159433079	 1.263902996	 2.038388394
N	 -3.602573851	 -0.663193764	 -1.514688602
H	 -2.704595113	 -0.702628247	 -1.047470319
H	 -4.292420636	 -0.762587399	 -0.781140626
C	 -3.754229700	 0.647524853	 -2.143007843
H	 -4.726511972	 0.704562219	 -2.628935499
H	 -3.662512233	 1.501618102	 -1.464176510
H	 -2.998966496	 0.759080829	 -2.918495544
