19
0  1  0  1  0  1  12   7  5.70491  6.53585  4.76435  3.93341  4.61518  4.21620 17.47985 17.46987 17.45844  6.56173 -12.33324 34.73778 -3.93566 -11.90714
C	 -3.122724012	 -0.658445714	 -1.198413631
H	 -3.333170614	 -1.169289254	 -2.128059645
C	 -3.109104992	 -1.370379387	 0.000147693
H	 -3.305694735	 -2.433630467	 0.000306394
C	 -2.836537290	 -0.711907843	 1.198614181
H	 -2.820435772	 -1.265057189	 2.127516921
C	 -2.579819291	 0.658260461	 1.198253704
H	 -2.368087064	 1.168488766	 2.127912561
C	 -2.594671459	 1.370289303	 -0.000119288
H	 -2.395097107	 2.433093567	 -0.000003545
C	 -2.864855301	 0.711794980	 -1.198450505
H	 -2.875389601	 1.263833442	 -2.128330570
N	 0.063819766	 -0.663193764	 -0.284101742
H	 -0.834158972	 -0.702628247	 -0.751320025
H	 0.753666550	 -0.762587399	 -1.017649719
C	 0.215475615	 0.647524853	 0.344217499
H	 1.187757887	 0.704562219	 0.830145155
H	 0.123758147	 1.501618102	 -0.334613835
H	 -0.539787589	 0.759080829	 1.119705200
