19
0  1  0  1  0  1  12   7 -2.48220 -2.34758 -2.66341 -2.79804 -2.71720 -2.76356 -0.22901 -0.22705 -0.22618 -2.52560 -1.29245  1.59233 -0.31653 -2.50895
C	 -4.237827543	 -0.658306605	 -1.198410695
H	 -4.448274145	 -1.169150145	 -2.128056709
C	 -4.224208523	 -1.370240278	 0.000150629
H	 -4.420798266	 -2.433491358	 0.000309330
C	 -3.951640821	 -0.711768734	 1.198617117
H	 -3.935539303	 -1.264918080	 2.127519857
C	 -3.694922822	 0.658399570	 1.198256640
H	 -3.483190595	 1.168627875	 2.127915497
C	 -3.709774990	 1.370428412	 -0.000116352
H	 -3.510200638	 2.433232676	 -0.000000609
C	 -3.979958832	 0.711934089	 -1.198447569
H	 -3.990493132	 1.263972551	 -2.128327634
N	 -0.192147560	 -0.663193764	 -0.080799310
H	 -1.045759831	 -0.702628247	 0.463263947
H	 -0.482495351	 -0.762587399	 -1.044998139
C	 0.427820789	 0.647524853	 0.102022492
H	 1.334787620	 0.704562219	 -0.497034827
H	 -0.205923125	 1.501618102	 -0.157963518
H	 0.721781236	 0.759080829	 1.143843464
