19
0  1  0  1  0  1  12   7 -1.69451 -1.19855 -2.25202 -2.74799 -2.37795 -2.59193  5.37494  5.36824  5.36811 -1.41030 -6.20970 14.18197 -1.88489 -7.49769
C	 -3.500464957	 -0.658399345	 -1.198409477
H	 -3.710911559	 -1.169242885	 -2.128055491
C	 -3.486845937	 -1.370333018	 0.000151847
H	 -3.683435680	 -2.433584098	 0.000310548
C	 -3.214278235	 -0.711861474	 1.198618335
H	 -3.198176717	 -1.265010820	 2.127521075
C	 -2.957560236	 0.658306830	 1.198257858
H	 -2.745828009	 1.168535135	 2.127916715
C	 -2.972412404	 1.370335672	 -0.000115134
H	 -2.772838052	 2.433139936	 0.000000609
C	 -3.242596246	 0.711841349	 -1.198446351
H	 -3.253130546	 1.263879811	 -2.128326416
N	 -0.192147560	 -0.663193764	 -0.080799310
H	 -1.045759831	 -0.702628247	 0.463263947
H	 -0.482495351	 -0.762587399	 -1.044998139
C	 0.427820789	 0.647524853	 0.102022492
H	 1.334787620	 0.704562219	 -0.497034827
H	 -0.205923125	 1.501618102	 -0.157963518
H	 0.721781236	 0.759080829	 1.143843464
