19
0  1  0  1  0  1  12   7 -2.16760 -1.92411 -2.45496 -2.69845 -2.52975 -2.62730  1.42313  1.41568  1.41564 -1.94902 -3.00583  5.94267 -1.06859 -3.81726
C	 0.087580513	 -0.748311977	 1.198410421
H	 0.298027115	 -1.259155517	 2.128056435
C	 0.073961492	 -1.460245650	 -0.000150903
H	 0.270551235	 -2.523496730	 -0.000309604
C	 -0.198606209	 -0.801774106	 -1.198617391
H	 -0.214707727	 -1.354923452	 -2.127520131
C	 -0.455324208	 0.568394198	 -1.198256914
H	 -0.667056435	 1.078622503	 -2.127915771
C	 -0.440472040	 1.280423040	 0.000116078
H	 -0.640046392	 2.343227304	 0.000000335
C	 -0.170288199	 0.621928717	 1.198447295
H	 -0.159753899	 1.173967179	 2.128327360
N	 -3.172290580	 -2.271481775	 0.210675721
H	 -2.276777835	 -1.799992269	 0.166309254
H	 -3.322343261	 -2.472884615	 1.190870296
C	 -4.213461988	 -1.359114875	 -0.257636779
H	 -5.181605222	 -1.852211555	 -0.192321338
H	 -4.277777923	 -0.410025763	 0.284389667
H	 -4.038588598	 -1.129337931	 -1.306860430
