19
0  1  0  1  0  1  12   7 -2.95250 -2.56778 -3.41626 -3.80098 -3.53132 -3.68773  2.70462  2.69270  2.69149 -2.68213 -3.79775  8.25898 -1.15415 -5.98921
C	 0.674833662	 1.072091414	 0.503133104
H	 1.264467232	 1.975746154	 0.430807647
C	 1.300705647	 -0.173070705	 0.465187936
H	 2.375661800	 -0.235676984	 0.366698675
C	 0.540536841	 -1.338151075	 0.559691726
H	 1.026437652	 -2.303774428	 0.535907284
C	 -0.845033933	 -1.257622495	 0.689976878
H	 -1.434182522	 -2.161452147	 0.763631135
C	 -1.470892955	 -0.012529177	 0.726672935
H	 -2.545714118	 0.049502090	 0.828134400
C	 -0.710942515	 1.152200458	 0.634520933
H	 -1.196216910	 2.118209264	 0.664018708
N	 0.274645262	 -0.223105490	 3.863180091
H	 0.409263619	 -0.179064988	 2.860108734
H	 0.416137833	 0.722041246	 4.195652368
C	 -1.101454213	 -0.629488899	 4.140615883
H	 -1.259330779	 -0.658035906	 5.217171419
H	 -1.872756400	 0.010891890	 3.700496885
H	 -1.256146194	 -1.639056701	 3.764994183
