19
0  1  0  1  0  1  12   7  4.32547  5.07995  3.57130  2.81683  3.42556  3.07393 14.32622 14.31482 14.31551  4.90456 -12.30622 31.32235 -3.75189 -10.35969
C	 -0.441055715	 -0.658445714	 1.558166937
H	 -0.230609113	 -1.169289254	 2.487812951
C	 -0.454674736	 -1.370379387	 0.359605613
H	 -0.258084993	 -2.433630467	 0.359446912
C	 -0.727242437	 -0.711907843	 -0.838860875
H	 -0.743343955	 -1.265057189	 -1.767763615
C	 -0.983960436	 0.658260461	 -0.838500398
H	 -1.195692663	 1.168488766	 -1.768159255
C	 -0.969108268	 1.370289303	 0.359872594
H	 -1.168682620	 2.433093567	 0.359756851
C	 -0.698924427	 0.711794980	 1.558203811
H	 -0.688390127	 1.263833442	 2.488083876
N	 -3.281726581	 -0.663193764	 1.879589654
H	 -2.428114310	 -0.702628247	 1.335526397
H	 -2.991378791	 -0.762587399	 2.843788483
C	 -3.901694930	 0.647524853	 1.696767852
H	 -4.808661761	 0.704562219	 2.295825171
H	 -3.267951017	 1.501618102	 1.956753862
H	 -4.195655377	 0.759080829	 0.654946880
