19
0  1  0  1  0  1  12   7 -2.30541 -2.16889 -2.46372 -2.60024 -2.51415 -2.56411 -0.03433 -0.03540 -0.03585 -2.25675 -1.45353  1.99076 -0.35614 -2.43783
C	 0.455229791	 -0.658329790	 1.288348717
H	 0.665676393	 -1.169173330	 2.217994731
C	 0.441610770	 -1.370263463	 0.089787393
H	 0.638200513	 -2.433514543	 0.089628692
C	 0.169043069	 -0.711791919	 -1.108679095
H	 0.152941551	 -1.264941265	 -2.037581835
C	 -0.087674930	 0.658376385	 -1.108318618
H	 -0.299407157	 1.168604690	 -2.037977475
C	 -0.072822762	 1.370405227	 0.090054374
H	 -0.272397114	 2.433209491	 0.089938631
C	 0.197361079	 0.711910904	 1.288385591
H	 0.207895379	 1.263949366	 2.218265656
N	 -3.602573851	 -0.663193764	 -1.514688602
H	 -2.704595113	 -0.702628247	 -1.047470319
H	 -4.292420636	 -0.762587399	 -0.781140626
C	 -3.754229700	 0.647524853	 -2.143007843
H	 -4.726511972	 0.704562219	 -2.628935499
H	 -3.662512233	 1.501618102	 -1.464176510
H	 -2.998966496	 0.759080829	 -2.918495544
