24
0  1  0  1  0  1  12  12 -4.89915 -4.55433 -5.41553 -5.76035 -5.51959 -5.65875  0.62343  0.60913  0.60921 -4.85163 -3.94441  6.57174 -1.35363 -6.12532
C	 -2.315569552	 1.325799898	 -0.429281664
H	 -2.273277454	 2.353763089	 -0.762302180
C	 -2.444401506	 0.296050653	 -1.360710030
H	 -2.499343077	 0.525679930	 -2.415818334
C	 -2.500899413	 -1.029095515	 -0.931541405
H	 -2.602342579	 -1.827282288	 -1.653927420
C	 -2.425522545	 -1.325669618	 0.428849949
H	 -2.469766339	 -2.353641789	 0.761667304
C	 -2.294160800	 -0.296712104	 1.360839597
H	 -2.234989732	 -0.526356829	 2.415850806
C	 -2.240643087	 1.029627005	 0.931801782
H	 -2.142973733	 1.827834093	 1.655027582
C	 1.461766961	 1.970802400	 0.791399923
H	 0.393694334	 2.078684207	 0.617966240
H	 2.005140654	 2.590908862	 0.081569723
H	 1.706169816	 2.323499811	 1.790178877
C	 1.947633942	 0.545692992	 0.654101115
O	 3.105883860	 0.232565124	 0.902795474
N	 1.005323088	 -0.342578796	 0.241693166
H	 0.091022085	 0.000000000	 0.000000000
C	 1.318213820	 -1.733257328	 0.011448457
H	 2.296171187	 -1.921785938	 0.443772503
H	 0.579456518	 -2.374799066	 0.487736978
H	 1.351884431	 -1.966501421	 -1.053045076
