24
0  1  0  1  0  1  12  12 -4.57747 -4.35127 -4.94876 -5.17497 -5.02600 -5.11202 -0.78156 -0.79046 -0.79020 -4.61618 -2.65588  3.15365 -0.81828 -4.29567
C	 -2.315569552	 1.325799898	 -0.429281664
H	 -2.273277454	 2.353763089	 -0.762302180
C	 -2.444401506	 0.296050653	 -1.360710030
H	 -2.499343077	 0.525679930	 -2.415818334
C	 -2.500899413	 -1.029095515	 -0.931541405
H	 -2.602342579	 -1.827282288	 -1.653927420
C	 -2.425522545	 -1.325669618	 0.428849949
H	 -2.469766339	 -2.353641789	 0.761667304
C	 -2.294160800	 -0.296712104	 1.360839597
H	 -2.234989732	 -0.526356829	 2.415850806
C	 -2.240643087	 1.029627005	 0.931801782
H	 -2.142973733	 1.827834093	 1.655027582
C	 1.707901585	 1.970802429	 0.791396123
H	 0.639828958	 2.078684236	 0.617962440
H	 2.251275278	 2.590908891	 0.081565923
H	 1.952304440	 2.323499840	 1.790175077
C	 2.193768566	 0.545693021	 0.654097315
O	 3.352018484	 0.232565153	 0.902791674
N	 1.251457712	 -0.342578767	 0.241689366
H	 0.337156709	 0.000000029	 -0.000003800
C	 1.564348444	 -1.733257299	 0.011444657
H	 2.542305811	 -1.921785909	 0.443768703
H	 0.825591142	 -2.374799037	 0.487733178
H	 1.598019055	 -1.966501392	 -1.053048876
