24
0  1  0  1  0  1  12  12 -3.97842 -3.65601 -4.43756 -4.75996 -4.52602 -4.66101  1.33785  1.33081  1.33141 -3.78453 -4.41738  8.25182 -1.85217 -5.76680
C	 -0.054649236	 1.325799898	 0.429281664
H	 -0.096941334	 2.353763089	 0.762302180
C	 0.074182717	 0.296050653	 1.360710030
H	 0.129124289	 0.525679930	 2.415818334
C	 0.130680625	 -1.029095515	 0.931541405
H	 0.232123791	 -1.827282288	 1.653927420
C	 0.055303757	 -1.325669618	 -0.428849949
H	 0.099547551	 -2.353641789	 -0.761667304
C	 -0.076057988	 -0.296712104	 -1.360839597
H	 -0.135229057	 -0.526356829	 -2.415850806
C	 -0.129575701	 1.029627005	 -0.931801782
H	 -0.227245055	 1.827834093	 -1.655027582
C	 -3.792000937	 1.970802386	 -1.917255747
H	 -2.723928310	 2.078684193	 -1.743822065
H	 -4.335374630	 2.590908848	 -1.207425548
H	 -4.036403791	 2.323499797	 -2.916034701
C	 -4.277867917	 0.545692978	 -1.779956939
O	 -5.436117835	 0.232565110	 -2.028651298
N	 -3.335557063	 -0.342578810	 -1.367548990
H	 -2.421256060	 -0.000000014	 -1.125855824
C	 -3.648447796	 -1.733257342	 -1.137304281
H	 -4.626405162	 -1.921785952	 -1.569628327
H	 -2.909690493	 -2.374799080	 -1.613592802
H	 -3.682118406	 -1.966501435	 -0.072810748
