24
0  1  0  1  0  1  12  12 -3.11109 -2.91149 -3.42153 -3.62113 -3.47627 -3.56041  0.59393  0.59517  0.59423 -3.12110 -2.60720  4.10461 -0.60381 -4.01470
C	 -2.315569552	 1.325799898	 -0.429281664
H	 -2.273277454	 2.353763089	 -0.762302180
C	 -2.444401506	 0.296050653	 -1.360710030
H	 -2.499343077	 0.525679930	 -2.415818334
C	 -2.500899413	 -1.029095515	 -0.931541405
H	 -2.602342579	 -1.827282288	 -1.653927420
C	 -2.425522545	 -1.325669618	 0.428849949
H	 -2.469766339	 -2.353641789	 0.761667304
C	 -2.294160800	 -0.296712104	 1.360839597
H	 -2.234989732	 -0.526356829	 2.415850806
C	 -2.240643087	 1.029627005	 0.931801782
H	 -2.142973733	 1.827834093	 1.655027582
C	 3.140618773	 0.915365021	 0.000000000
H	 2.318406219	 1.514640841	 0.383838338
H	 3.550836781	 1.394562809	 -0.886417832
H	 3.932753593	 0.865285660	 0.742766519
C	 2.733012177	 -0.494877802	 -0.361837746
O	 3.552823498	 -1.329765006	 -0.725587073
N	 1.403565262	 -0.753009179	 -0.247838080
H	 0.784472697	 0.000000000	 0.000000000
C	 0.843195161	 -2.035296600	 -0.603681213
H	 1.669600685	 -2.730116139	 -0.718256290
H	 0.174595295	 -2.390068878	 0.178175397
H	 0.290886852	 -1.985748329	 -1.542394960
