24
0  1  0  1  0  1  12  12 -2.94448 -2.53306 -3.39295 -3.80437 -3.49236 -3.67299  3.46987  3.46150  3.46091 -2.66397 -5.51312 11.43423 -1.62468 -6.96040
C	 -0.054649236	 1.325799898	 0.429281664
H	 -0.096941334	 2.353763089	 0.762302180
C	 0.074182717	 0.296050653	 1.360710030
H	 0.129124289	 0.525679930	 2.415818334
C	 0.130680625	 -1.029095515	 0.931541405
H	 0.232123791	 -1.827282288	 1.653927420
C	 0.055303757	 -1.325669618	 -0.428849949
H	 0.099547551	 -2.353641789	 -0.761667304
C	 -0.076057988	 -0.296712104	 -1.360839597
H	 -0.135229057	 -0.526356829	 -2.415850806
C	 -0.129575701	 1.029627005	 -0.931801782
H	 -0.227245055	 1.827834093	 -1.655027582
C	 -4.711854633	 -0.151233463	 -0.000003800
H	 -3.889642079	 0.448042357	 -0.383842138
H	 -5.122072641	 0.327964325	 0.886414032
H	 -5.503989452	 -0.201312824	 -0.742770319
C	 -4.304248036	 -1.561476286	 0.361833946
O	 -5.124059357	 -2.396363490	 0.725583273
N	 -2.974801121	 -1.819607663	 0.247834280
H	 -2.355708556	 -1.066598484	 -0.000003800
C	 -2.414431021	 -3.101895085	 0.603677413
H	 -3.240836544	 -3.796714623	 0.718252490
H	 -1.745831154	 -3.456667362	 -0.178179197
H	 -1.862122712	 -3.052346814	 1.542391160
