24
0  1  0  1  0  1  12  12 -1.08225 -0.26049 -2.32567 -3.14744 -2.47624 -2.86117 11.11395 11.11136 11.11872 -0.62220 -11.17127 27.94192 -4.20249 -13.19036
C	 0.408779894	 1.051025017	 0.375536055
H	 1.011938752	 1.948545699	 0.368077879
C	 1.019167880	 -0.199769627	 0.289053431
H	 2.095571302	 -0.271833326	 0.217190985
C	 0.241722635	 -1.356882700	 0.296689948
H	 0.715216333	 -2.326588694	 0.228072177
C	 -1.146179707	 -1.264257568	 0.393901978
H	 -1.749181865	 -2.161926634	 0.399409796
C	 -1.757277805	 -0.013960230	 0.482951731
H	 -2.833513775	 0.058243677	 0.559039176
C	 -0.979686023	 1.144206527	 0.472283704
H	 -1.454051418	 2.114000878	 0.537135888
C	 0.236566690	 1.935769648	 3.768727584
H	 -0.121578409	 2.101500491	 2.755434814
H	 1.261150251	 2.292479214	 3.850169093
H	 -0.367530183	 2.509405477	 4.467080303
C	 0.199720356	 0.482606536	 4.184436411
O	 0.484348761	 0.130245119	 5.322974474
N	 -0.172674914	 -0.383110208	 3.205195319
H	 -0.333802814	 -0.025119467	 2.279126979
C	 -0.209467787	 -1.809989437	 3.423282379
H	 -0.131380217	 -1.976896973	 4.493278610
H	 -1.144708323	 -2.228340013	 3.056544267
H	 0.619658690	 -2.313862201	 2.925944947
