24
0  1  0  1  0  1  12  12 -3.70183 -3.37396 -4.09345 -4.42132 -4.18553 -4.32279  1.59624  1.58695  1.58472 -3.57421 -4.27107  8.17578 -1.74364 -5.73528
C	 -0.054649236	 1.325799898	 0.429281664
H	 -0.096941334	 2.353763089	 0.762302180
C	 0.074182717	 0.296050653	 1.360710030
H	 0.129124289	 0.525679930	 2.415818334
C	 0.130680625	 -1.029095515	 0.931541405
H	 0.232123791	 -1.827282288	 1.653927420
C	 0.055303757	 -1.325669618	 -0.428849949
H	 0.099547551	 -2.353641789	 -0.761667304
C	 -0.076057988	 -0.296712104	 -1.360839597
H	 -0.135229057	 -0.526356829	 -2.415850806
C	 -0.129575701	 1.029627005	 -0.931801782
H	 -0.227245055	 1.827834093	 -1.655027582
C	 -2.859210158	 3.624018778	 -0.000001900
H	 -1.929115797	 3.211599729	 -0.383840238
H	 -2.649321704	 4.218876888	 0.886415932
H	 -3.298647566	 4.284987974	 -0.742768419
C	 -3.876712969	 2.565899699	 0.361835846
O	 -5.009652158	 2.858433527	 0.725585173
N	 -3.435537842	 1.285499209	 0.247836180
H	 -2.473866481	 1.125853910	 -0.000001900
C	 -4.265846274	 0.159060756	 0.603679313
H	 -5.280780407	 0.527339164	 0.718254390
H	 -4.238788145	 -0.597349852	 -0.178177297
H	 -3.946782058	 -0.294478135	 1.542393060
