24
0  1  0  1  0  1  12  12 -3.84474 -3.59042 -4.16864 -4.42296 -4.24827 -4.34991  0.43976  0.43140  0.42987 -3.78222 -3.27937  5.43969 -1.27678 -4.66576
C	 -0.054649236	 1.325799898	 0.429281664
H	 -0.096941334	 2.353763089	 0.762302180
C	 0.074182717	 0.296050653	 1.360710030
H	 0.129124289	 0.525679930	 2.415818334
C	 0.130680625	 -1.029095515	 0.931541405
H	 0.232123791	 -1.827282288	 1.653927420
C	 0.055303757	 -1.325669618	 -0.428849949
H	 0.099547551	 -2.353641789	 -0.761667304
C	 -0.076057988	 -0.296712104	 -1.360839597
H	 -0.135229057	 -0.526356829	 -2.415850806
C	 -0.129575701	 1.029627005	 -0.931801782
H	 -0.227245055	 1.827834093	 -1.655027582
C	 -2.989419202	 3.683274262	 0.000000000
H	 -2.059324841	 3.270855213	 -0.383838338
H	 -2.779530748	 4.278132372	 0.886417832
H	 -3.428856610	 4.344243458	 -0.742766519
C	 -4.006922013	 2.625155183	 0.361837746
O	 -5.139861202	 2.917689011	 0.725587073
N	 -3.565746886	 1.344754693	 0.247838080
H	 -2.604075525	 1.185109394	 -0.000000000
C	 -4.396055318	 0.218316240	 0.603681213
H	 -5.410989451	 0.586594648	 0.718256290
H	 -4.368997189	 -0.538094368	 -0.178175397
H	 -4.076991102	 -0.235222651	 1.542394960
