24
0  1  0  1  0  1  12  12 -3.00585 -2.85637 -3.26799 -3.41747 -3.31161 -3.37243 -0.07095 -0.06793 -0.06703 -3.05900 -2.00273  2.59416 -0.43187 -3.21857
C	 -2.315569552	 1.325799898	 -0.429281664
H	 -2.273277454	 2.353763089	 -0.762302180
C	 -2.444401506	 0.296050653	 -1.360710030
H	 -2.499343077	 0.525679930	 -2.415818334
C	 -2.500899413	 -1.029095515	 -0.931541405
H	 -2.602342579	 -1.827282288	 -1.653927420
C	 -2.425522545	 -1.325669618	 0.428849949
H	 -2.469766339	 -2.353641789	 0.761667304
C	 -2.294160800	 -0.296712104	 1.360839597
H	 -2.234989732	 -0.526356829	 2.415850806
C	 -2.240643087	 1.029627005	 0.931801782
H	 -2.142973733	 1.827834093	 1.655027582
C	 3.298358615	 0.915365035	 -0.000001900
H	 2.476146061	 1.514640855	 0.383836438
H	 3.708576623	 1.394562823	 -0.886419732
H	 4.090493435	 0.865285674	 0.742764619
C	 2.890752019	 -0.494877788	 -0.361839646
O	 3.710563340	 -1.329764992	 -0.725588973
N	 1.561305104	 -0.753009165	 -0.247839980
H	 0.942212539	 0.000000014	 -0.000001900
C	 1.000935003	 -2.035296586	 -0.603683113
H	 1.827340527	 -2.730116125	 -0.718258190
H	 0.332335137	 -2.390068864	 0.178173497
H	 0.448626694	 -1.985748315	 -1.542396860
