24
0  1  0  1  0  1  12  12 -4.72777 -4.30335 -5.34665 -5.77107 -5.46295 -5.64109  1.93696  1.92208  1.92207 -4.60856 -4.95930  9.43929 -1.75745 -7.33110
C	 -2.315569552	 1.325799898	 -0.429281664
H	 -2.273277454	 2.353763089	 -0.762302180
C	 -2.444401506	 0.296050653	 -1.360710030
H	 -2.499343077	 0.525679930	 -2.415818334
C	 -2.500899413	 -1.029095515	 -0.931541405
H	 -2.602342579	 -1.827282288	 -1.653927420
C	 -2.425522545	 -1.325669618	 0.428849949
H	 -2.469766339	 -2.353641789	 0.761667304
C	 -2.294160800	 -0.296712104	 1.360839597
H	 -2.234989732	 -0.526356829	 2.415850806
C	 -2.240643087	 1.029627005	 0.931801782
H	 -2.142973733	 1.827834093	 1.655027582
C	 1.338699649	 1.970802386	 0.791401823
H	 0.270627022	 2.078684193	 0.617968140
H	 1.882073342	 2.590908848	 0.081571623
H	 1.583102504	 2.323499797	 1.790180777
C	 1.824566630	 0.545692978	 0.654103015
O	 2.982816548	 0.232565110	 0.902797374
N	 0.882255776	 -0.342578810	 0.241695066
H	 -0.032045227	 -0.000000014	 0.000001900
C	 1.195146508	 -1.733257342	 0.011450357
H	 2.173103875	 -1.921785952	 0.443774403
H	 0.456389206	 -2.374799080	 0.487738878
H	 1.228817119	 -1.966501435	 -1.053043176
