24
0  1  0  1  0  1  12  12 10.55007 11.58600  9.66709  8.63117  9.50904  8.99684 23.95477 23.94673 23.93563 10.26168 -19.07718 50.84015 -6.56933 -14.93196
C	 -2.315569552	 1.325799898	 -0.429281664
H	 -2.273277454	 2.353763089	 -0.762302180
C	 -2.444401506	 0.296050653	 -1.360710030
H	 -2.499343077	 0.525679930	 -2.415818334
C	 -2.500899413	 -1.029095515	 -0.931541405
H	 -2.602342579	 -1.827282288	 -1.653927420
C	 -2.425522545	 -1.325669618	 0.428849949
H	 -2.469766339	 -2.353641789	 0.761667304
C	 -2.294160800	 -0.296712104	 1.360839597
H	 -2.234989732	 -0.526356829	 2.415850806
C	 -2.240643087	 1.029627005	 0.931801782
H	 -2.142973733	 1.827834093	 1.655027582
C	 0.187042940	 2.498164780	 0.000011400
H	 -0.743051421	 2.085745731	 0.383849738
H	 -0.022845514	 3.093022890	 -0.886406432
H	 0.626480349	 3.159133977	 0.742777919
C	 1.204545752	 1.440045702	 -0.361826346
O	 2.337484941	 1.732579530	 -0.725575673
N	 0.763370625	 0.159645212	 -0.247826680
H	 -0.198300736	 -0.000000087	 0.000011400
C	 1.593679056	 -0.966793241	 -0.603669813
H	 2.608613190	 -0.598514833	 -0.718244890
H	 1.566620928	 -1.723203849	 0.178186797
H	 1.274614840	 -1.420332132	 -1.542383560
