24
0  1  0  1  0  1  12  12 14.23582 15.46875 13.12110 11.88817 12.95132 12.32960 30.10662 30.09503 30.07823 14.94562 -22.21260 60.22376 -6.15168 -16.91386
C	 -0.054649236	 1.325799898	 0.429281664
H	 -0.096941334	 2.353763089	 0.762302180
C	 0.074182717	 0.296050653	 1.360710030
H	 0.129124289	 0.525679930	 2.415818334
C	 0.130680625	 -1.029095515	 0.931541405
H	 0.232123791	 -1.827282288	 1.653927420
C	 0.055303757	 -1.325669618	 -0.428849949
H	 0.099547551	 -2.353641789	 -0.761667304
C	 -0.076057988	 -0.296712104	 -1.360839597
H	 -0.135229057	 -0.526356829	 -2.415850806
C	 -0.129575701	 1.029627005	 -0.931801782
H	 -0.227245055	 1.827834093	 -1.655027582
C	 -4.188340429	 0.085788358	 -0.000011400
H	 -3.366127875	 0.685064178	 -0.383849738
H	 -4.598558437	 0.564986146	 0.886406432
H	 -4.980475248	 0.035708997	 -0.742777919
C	 -3.780733832	 -1.324454465	 0.361826346
O	 -4.600545153	 -2.159341669	 0.725575673
N	 -2.451286917	 -1.582585842	 0.247826680
H	 -1.832194352	 -0.829576663	 -0.000011400
C	 -1.890916817	 -2.864873264	 0.603669813
H	 -2.717322340	 -3.559692802	 0.718244890
H	 -1.222316950	 -3.219645541	 -0.178186797
H	 -1.338608508	 -2.815324993	 1.542383560
