24
0  1  0  1  0  1  12  12 -2.78445 -2.67258 -3.00802 -3.11989 -3.04291 -3.08641 -0.45475 -0.45092 -0.44854 -2.86073 -1.58796  1.63163 -0.31486 -2.58954
C	 -2.315569552	 1.325799898	 -0.429281664
H	 -2.273277454	 2.353763089	 -0.762302180
C	 -2.444401506	 0.296050653	 -1.360710030
H	 -2.499343077	 0.525679930	 -2.415818334
C	 -2.500899413	 -1.029095515	 -0.931541405
H	 -2.602342579	 -1.827282288	 -1.653927420
C	 -2.425522545	 -1.325669618	 0.428849949
H	 -2.469766339	 -2.353641789	 0.761667304
C	 -2.294160800	 -0.296712104	 1.360839597
H	 -2.234989732	 -0.526356829	 2.415850806
C	 -2.240643087	 1.029627005	 0.931801782
H	 -2.142973733	 1.827834093	 1.655027582
C	 3.456098458	 0.915365050	 -0.000003800
H	 2.633885904	 1.514640870	 0.383834538
H	 3.866316466	 1.394562838	 -0.886421632
H	 4.248233278	 0.865285689	 0.742762719
C	 3.048491862	 -0.494877773	 -0.361841546
O	 3.868303183	 -1.329764977	 -0.725590873
N	 1.719044947	 -0.753009150	 -0.247841880
H	 1.099952382	 0.000000029	 -0.000003800
C	 1.158674846	 -2.035296571	 -0.603685013
H	 1.985080370	 -2.730116110	 -0.718260090
H	 0.490074980	 -2.390068849	 0.178171597
H	 0.606366537	 -1.985748300	 -1.542398760
