24
0  1  0  1  0  1  12  12 -3.73282 -3.53576 -4.00500 -4.20205 -4.07254 -4.14772 -0.26599 -0.27271 -0.27346 -3.71888 -2.57434  3.60241 -0.94242 -3.80454
C	 -0.054649236	 1.325799898	 0.429281664
H	 -0.096941334	 2.353763089	 0.762302180
C	 0.074182717	 0.296050653	 1.360710030
H	 0.129124289	 0.525679930	 2.415818334
C	 0.130680625	 -1.029095515	 0.931541405
H	 0.232123791	 -1.827282288	 1.653927420
C	 0.055303757	 -1.325669618	 -0.428849949
H	 0.099547551	 -2.353641789	 -0.761667304
C	 -0.076057988	 -0.296712104	 -1.360839597
H	 -0.135229057	 -0.526356829	 -2.415850806
C	 -0.129575701	 1.029627005	 -0.931801782
H	 -0.227245055	 1.827834093	 -1.655027582
C	 -3.119628246	 3.742529746	 0.000001900
H	 -2.189533885	 3.330110697	 -0.383836438
H	 -2.909739792	 4.337387856	 0.886419732
H	 -3.559065654	 4.403498942	 -0.742764619
C	 -4.137131057	 2.684410667	 0.361839646
O	 -5.270070246	 2.976944495	 0.725588973
N	 -3.695955930	 1.404010177	 0.247839980
H	 -2.734284569	 1.244364878	 0.000001900
C	 -4.526264362	 0.277571724	 0.603683113
H	 -5.541198495	 0.645850132	 0.718258190
H	 -4.499206233	 -0.478838884	 -0.178173497
H	 -4.207200146	 -0.175967167	 1.542396860
