24
0  1  0  1  0  1  12  12 -3.40166 -2.97119 -3.98032 -4.41078 -4.08253 -4.27178  3.37280  3.36509  3.36632 -3.14475 -6.05644 12.06358 -1.85656 -7.29533
C	 -0.054649236	 1.325799898	 0.429281664
H	 -0.096941334	 2.353763089	 0.762302180
C	 0.074182717	 0.296050653	 1.360710030
H	 0.129124289	 0.525679930	 2.415818334
C	 0.130680625	 -1.029095515	 0.931541405
H	 0.232123791	 -1.827282288	 1.653927420
C	 0.055303757	 -1.325669618	 -0.428849949
H	 0.099547551	 -2.353641789	 -0.761667304
C	 -0.076057988	 -0.296712104	 -1.360839597
H	 -0.135229057	 -0.526356829	 -2.415850806
C	 -0.129575701	 1.029627005	 -0.931801782
H	 -0.227245055	 1.827834093	 -1.655027582
C	 -3.638720736	 1.970802371	 1.857994578
H	 -2.954486447	 2.078684178	 1.019733392
H	 -3.295676597	 2.590908833	 2.683485100
H	 -4.625890109	 2.323499782	 1.570264182
C	 -3.762749970	 0.545692963	 2.347417131
O	 -4.557250561	 0.232565095	 3.226143804
N	 -2.934438782	 -0.342578825	 1.737555967
H	 -2.267975859	 -0.000000029	 1.066594655
C	 -2.891486382	 -1.733257357	 2.123649645
H	 -3.754868671	 -1.921785967	 2.754423545
H	 -2.934585689	 -2.374799095	 1.245722793
H	 -1.986443245	 -1.966501450	 2.685056016
