24
0  1  0  1  0  1  12  12 -4.81410 -4.53435 -5.24945 -5.52921 -5.34022 -5.44940 -0.23656 -0.24868 -0.24849 -4.81814 -3.20302  4.55942 -1.04898 -5.12556
C	 -2.315569552	 1.325799898	 -0.429281664
H	 -2.273277454	 2.353763089	 -0.762302180
C	 -2.444401506	 0.296050653	 -1.360710030
H	 -2.499343077	 0.525679930	 -2.415818334
C	 -2.500899413	 -1.029095515	 -0.931541405
H	 -2.602342579	 -1.827282288	 -1.653927420
C	 -2.425522545	 -1.325669618	 0.428849949
H	 -2.469766339	 -2.353641789	 0.761667304
C	 -2.294160800	 -0.296712104	 1.360839597
H	 -2.234989732	 -0.526356829	 2.415850806
C	 -2.240643087	 1.029627005	 0.931801782
H	 -2.142973733	 1.827834093	 1.655027582
C	 1.584834273	 1.970802414	 0.791398023
H	 0.516761646	 2.078684221	 0.617964340
H	 2.128207966	 2.590908876	 0.081567823
H	 1.829237128	 2.323499825	 1.790176977
C	 2.070701254	 0.545693006	 0.654099215
O	 3.228951172	 0.232565138	 0.902793574
N	 1.128390400	 -0.342578782	 0.241691266
H	 0.214089397	 0.000000014	 -0.000001900
C	 1.441281132	 -1.733257314	 0.011446557
H	 2.419238499	 -1.921785924	 0.443770603
H	 0.702523830	 -2.374799052	 0.487735078
H	 1.474951743	 -1.966501407	 -1.053046976
