24
0  1  0  1  0  1  12  12 -4.22120 -4.01902 -4.63115 -4.83333 -4.69505 -4.77487 -0.36574 -0.36743 -0.36712 -4.30300 -2.39595  3.07548 -0.67283 -4.30971
C	 -2.315569552	 1.325799898	 -0.429281664
H	 -2.273277454	 2.353763089	 -0.762302180
C	 -2.444401506	 0.296050653	 -1.360710030
H	 -2.499343077	 0.525679930	 -2.415818334
C	 -2.500899413	 -1.029095515	 -0.931541405
H	 -2.602342579	 -1.827282288	 -1.653927420
C	 -2.425522545	 -1.325669618	 0.428849949
H	 -2.469766339	 -2.353641789	 0.761667304
C	 -2.294160800	 -0.296712104	 1.360839597
H	 -2.234989732	 -0.526356829	 2.415850806
C	 -2.240643087	 1.029627005	 0.931801782
H	 -2.142973733	 1.827834093	 1.655027582
C	 1.886988259	 1.970802429	 -0.791403723
H	 1.202753970	 2.078684236	 0.046857463
H	 1.543944120	 2.590908891	 -1.616894245
H	 2.874157633	 2.323499840	 -0.503673327
C	 2.011017494	 0.545693021	 -1.280826276
O	 2.805518085	 0.232565153	 -2.159552949
N	 1.182706306	 -0.342578767	 -0.670965112
H	 0.516243383	 0.000000029	 -0.000003800
C	 1.139753905	 -1.733257299	 -1.057058789
H	 2.003136195	 -1.921785909	 -1.687832690
H	 1.182853213	 -2.374799037	 -0.179131938
H	 0.234710769	 -1.966501392	 -1.618465160
