24
0  1  0  1  0  1  12  12 -0.16024  0.51371 -1.04223 -1.71618 -1.16919 -1.48330  9.79978  9.79397  9.79900  0.28664 -10.58802 26.31085 -4.77714 -10.65904
C	 -0.054649236	 1.325799898	 0.429281664
H	 -0.096941334	 2.353763089	 0.762302180
C	 0.074182717	 0.296050653	 1.360710030
H	 0.129124289	 0.525679930	 2.415818334
C	 0.130680625	 -1.029095515	 0.931541405
H	 0.232123791	 -1.827282288	 1.653927420
C	 0.055303757	 -1.325669618	 -0.428849949
H	 0.099547551	 -2.353641789	 -0.761667304
C	 -0.076057988	 -0.296712104	 -1.360839597
H	 -0.135229057	 -0.526356829	 -2.415850806
C	 -0.129575701	 1.029627005	 -0.931801782
H	 -0.227245055	 1.827834093	 -1.655027582
C	 -3.409680712	 1.970802342	 -1.739495038
H	 -2.341608085	 2.078684149	 -1.566061356
H	 -3.953054405	 2.590908804	 -1.029664839
H	 -3.654083566	 2.323499753	 -2.738273992
C	 -3.895547692	 0.545692934	 -1.602196230
O	 -5.053797610	 0.232565066	 -1.850890589
N	 -2.953236838	 -0.342578854	 -1.189788281
H	 -2.038935835	 -0.000000058	 -0.948095115
C	 -3.266127571	 -1.733257386	 -0.959543572
H	 -4.244084937	 -1.921785996	 -1.391867618
H	 -2.527370268	 -2.374799124	 -1.435832093
H	 -3.299798181	 -1.966501479	 0.104949961
