24
0  1  0  1  0  1  12  12 -5.07048 -4.62378 -5.77999 -6.22669 -5.89855 -6.08744  2.02141  2.00914  2.01106 -4.92026 -5.20896 10.06451 -1.96050 -7.81531
C	 0.408779894	 1.051025017	 0.375536055
H	 1.011938752	 1.948545699	 0.368077879
C	 1.019167880	 -0.199769627	 0.289053431
H	 2.095571302	 -0.271833326	 0.217190985
C	 0.241722635	 -1.356882700	 0.296689948
H	 0.715216333	 -2.326588694	 0.228072177
C	 -1.146179707	 -1.264257568	 0.393901978
H	 -1.749181865	 -2.161926634	 0.399409796
C	 -1.757277805	 -0.013960230	 0.482951731
H	 -2.833513775	 0.058243677	 0.559039176
C	 -0.979686023	 1.144206527	 0.472283704
H	 -1.454051418	 2.114000878	 0.537135888
C	 0.243158253	 1.951047200	 4.123886663
H	 -0.114986846	 2.116778043	 3.110593893
H	 1.267741814	 2.307756766	 4.205328172
H	 -0.360938620	 2.524683029	 4.822239382
C	 0.206311919	 0.497884088	 4.539595490
O	 0.490940324	 0.145522671	 5.678133553
N	 -0.166083351	 -0.367832656	 3.560354398
H	 -0.327211251	 -0.009841915	 2.634286058
C	 -0.202876224	 -1.794711885	 3.778441458
H	 -0.124788654	 -1.961619421	 4.848437689
H	 -1.138116760	 -2.213062461	 3.411703346
H	 0.626250253	 -2.298584649	 3.281104026
