24
0  1  0  1  0  1  12  12 -3.47372 -3.06249 -4.04066 -4.45189 -4.14112 -4.32004  3.08106  3.07429  3.07606 -3.18927 -5.81858 12.22592 -2.53148 -7.06513
C	 -0.054649236	 1.325799898	 0.429281664
H	 -0.096941334	 2.353763089	 0.762302180
C	 0.074182717	 0.296050653	 1.360710030
H	 0.129124289	 0.525679930	 2.415818334
C	 0.130680625	 -1.029095515	 0.931541405
H	 0.232123791	 -1.827282288	 1.653927420
C	 0.055303757	 -1.325669618	 -0.428849949
H	 0.099547551	 -2.353641789	 -0.761667304
C	 -0.076057988	 -0.296712104	 -1.360839597
H	 -0.135229057	 -0.526356829	 -2.415850806
C	 -0.129575701	 1.029627005	 -0.931801782
H	 -0.227245055	 1.827834093	 -1.655027582
C	 -3.664560862	 1.970802371	 -1.858002177
H	 -2.596488235	 2.078684178	 -1.684568495
H	 -4.207934555	 2.590908833	 -1.148171978
H	 -3.908963716	 2.323499782	 -2.856781131
C	 -4.150427842	 0.545692963	 -1.720703369
O	 -5.308677760	 0.232565095	 -1.969397728
N	 -3.208116988	 -0.342578825	 -1.308295420
H	 -2.293815985	 -0.000000029	 -1.066602254
C	 -3.521007721	 -1.733257357	 -1.078050711
H	 -4.498965087	 -1.921785967	 -1.510374757
H	 -2.782250418	 -2.374799095	 -1.554339232
H	 -3.554678331	 -1.966501450	 -0.013557178
