24
0  1  0  1  0  1  12  12 -3.18335 -2.97523 -3.42360 -3.63171 -3.48716 -3.57164  0.21083  0.20765  0.20549 -3.23062 -2.74128  4.13636 -0.77901 -3.84669
C	 -2.315569552	 1.325799898	 -0.429281664
H	 -2.273277454	 2.353763089	 -0.762302180
C	 -2.444401506	 0.296050653	 -1.360710030
H	 -2.499343077	 0.525679930	 -2.415818334
C	 -2.500899413	 -1.029095515	 -0.931541405
H	 -2.602342579	 -1.827282288	 -1.653927420
C	 -2.425522545	 -1.325669618	 0.428849949
H	 -2.469766339	 -2.353641789	 0.761667304
C	 -2.294160800	 -0.296712104	 1.360839597
H	 -2.234989732	 -0.526356829	 2.415850806
C	 -2.240643087	 1.029627005	 0.931801782
H	 -2.142973733	 1.827834093	 1.655027582
C	 1.117910118	 2.498164867	 0.000000000
H	 0.187815757	 2.085745818	 0.383838338
H	 0.908021664	 3.093022977	 -0.886417832
H	 1.557347527	 3.159134064	 0.742766519
C	 2.135412930	 1.440045789	 -0.361837746
O	 3.268352119	 1.732579617	 -0.725587073
N	 1.694237803	 0.159645299	 -0.247838080
H	 0.732566442	 0.000000000	 0.000000000
C	 2.524546234	 -0.966793154	 -0.603681213
H	 3.539480368	 -0.598514746	 -0.718256290
H	 2.497488106	 -1.723203762	 0.178175397
H	 2.205482018	 -1.420332045	 -1.542394960
