24
0  1  0  1  0  1  12  12 10.70947 11.91141  9.30477  8.10283  9.13301  8.53362 26.82991 26.81756 26.80851 11.40397 -22.58204 57.64616 -6.73616 -16.92399
C	 -0.054649236	 1.325799898	 0.429281664
H	 -0.096941334	 2.353763089	 0.762302180
C	 0.074182717	 0.296050653	 1.360710030
H	 0.129124289	 0.525679930	 2.415818334
C	 0.130680625	 -1.029095515	 0.931541405
H	 0.232123791	 -1.827282288	 1.653927420
C	 0.055303757	 -1.325669618	 -0.428849949
H	 0.099547551	 -2.353641789	 -0.761667304
C	 -0.076057988	 -0.296712104	 -1.360839597
H	 -0.135229057	 -0.526356829	 -2.415850806
C	 -0.129575701	 1.029627005	 -0.931801782
H	 -0.227245055	 1.827834093	 -1.655027582
C	 -3.134702687	 1.970802313	 1.620965099
H	 -2.450468398	 2.078684120	 0.782703913
H	 -2.791658548	 2.590908775	 2.446455621
H	 -4.121872060	 2.323499724	 1.333234703
C	 -3.258731921	 0.545692905	 2.110387652
O	 -4.053232512	 0.232565037	 2.989114325
N	 -2.430420733	 -0.342578883	 1.500526488
H	 -1.763957810	 -0.000000087	 0.829565176
C	 -2.387468333	 -1.733257415	 1.886620166
H	 -3.250850622	 -1.921786025	 2.517394066
H	 -2.430567640	 -2.374799153	 1.008693314
H	 -1.482425196	 -1.966501508	 2.448026537
