24
0  1  0  1  0  1  12  12 -4.57128 -4.24464 -5.14264 -5.46928 -5.23425 -5.37100  1.13663  1.12988  1.12782 -4.56788 -3.85253  6.70964 -1.16258 -6.26241
C	 -2.315569552	 1.325799898	 -0.429281664
H	 -2.273277454	 2.353763089	 -0.762302180
C	 -2.444401506	 0.296050653	 -1.360710030
H	 -2.499343077	 0.525679930	 -2.415818334
C	 -2.500899413	 -1.029095515	 -0.931541405
H	 -2.602342579	 -1.827282288	 -1.653927420
C	 -2.425522545	 -1.325669618	 0.428849949
H	 -2.469766339	 -2.353641789	 0.761667304
C	 -2.294160800	 -0.296712104	 1.360839597
H	 -2.234989732	 -0.526356829	 2.415850806
C	 -2.240643087	 1.029627005	 0.931801782
H	 -2.142973733	 1.827834093	 1.655027582
C	 1.624573029	 1.970802400	 -0.791399923
H	 0.940338740	 2.078684207	 0.046861263
H	 1.281528890	 2.590908862	 -1.616890445
H	 2.611742403	 2.323499811	 -0.503669527
C	 1.748602264	 0.545692992	 -1.280822476
O	 2.543102855	 0.232565124	 -2.159549149
N	 0.920291076	 -0.342578796	 -0.670961312
H	 0.253828153	 0.000000000	 0.000000000
C	 0.877338675	 -1.733257328	 -1.057054989
H	 1.740720965	 -1.921785938	 -1.687828890
H	 0.920437983	 -2.374799066	 -0.179128138
H	 -0.027704461	 -1.966501421	 -1.618461360
