24
0  1  0  1  0  1  12  12 -4.14639 -3.62447 -4.89512 -5.41704 -5.02264 -5.25057  3.89742  3.88377  3.88398 -3.93234 -6.35939 13.50424 -2.29386 -8.78332
C	 -2.315569552	 1.325799898	 -0.429281664
H	 -2.273277454	 2.353763089	 -0.762302180
C	 -2.444401506	 0.296050653	 -1.360710030
H	 -2.499343077	 0.525679930	 -2.415818334
C	 -2.500899413	 -1.029095515	 -0.931541405
H	 -2.602342579	 -1.827282288	 -1.653927420
C	 -2.425522545	 -1.325669618	 0.428849949
H	 -2.469766339	 -2.353641789	 0.761667304
C	 -2.294160800	 -0.296712104	 1.360839597
H	 -2.234989732	 -0.526356829	 2.415850806
C	 -2.240643087	 1.029627005	 0.931801782
H	 -2.142973733	 1.827834093	 1.655027582
C	 1.215632337	 1.970802371	 0.791403723
H	 0.147559710	 2.078684178	 0.617970040
H	 1.759006030	 2.590908833	 0.081573523
H	 1.460035192	 2.323499782	 1.790182677
C	 1.701499318	 0.545692963	 0.654104915
O	 2.859749236	 0.232565095	 0.902799274
N	 0.759188464	 -0.342578825	 0.241696966
H	 -0.155112539	 -0.000000029	 0.000003800
C	 1.072079196	 -1.733257357	 0.011452257
H	 2.050036563	 -1.921785967	 0.443776303
H	 0.333321894	 -2.374799095	 0.487740778
H	 1.105749807	 -1.966501450	 -1.053041276
