24
0  1  0  1  0  1  12  12  9.32235 10.44309  7.94376  6.82303  7.78552  7.22669 24.43359 24.42786 24.42221  9.64795 -20.06850 54.86755 -8.97497 -16.17612
C	 -0.054649236	 1.325799898	 0.429281664
H	 -0.096941334	 2.353763089	 0.762302180
C	 0.074182717	 0.296050653	 1.360710030
H	 0.129124289	 0.525679930	 2.415818334
C	 0.130680625	 -1.029095515	 0.931541405
H	 0.232123791	 -1.827282288	 1.653927420
C	 0.055303757	 -1.325669618	 -0.428849949
H	 0.099547551	 -2.353641789	 -0.761667304
C	 -0.076057988	 -0.296712104	 -1.360839597
H	 -0.135229057	 -0.526356829	 -2.415850806
C	 -0.129575701	 1.029627005	 -0.931801782
H	 -0.227245055	 1.827834093	 -1.655027582
C	 -3.154800563	 1.970802313	 -1.620987898
H	 -2.086727936	 2.078684120	 -1.447554216
H	 -3.698174256	 2.590908775	 -0.911157699
H	 -3.399203417	 2.323499724	 -2.619766852
C	 -3.640667543	 0.545692905	 -1.483689090
O	 -4.798917461	 0.232565037	 -1.732383449
N	 -2.698356689	 -0.342578883	 -1.071281141
H	 -1.784055686	 -0.000000087	 -0.829587975
C	 -3.011247422	 -1.733257415	 -0.841036432
H	 -3.989204788	 -1.921786025	 -1.273360478
H	 -2.272490119	 -2.374799153	 -1.317324953
H	 -3.044918032	 -1.966501508	 0.223457101
