24
0  1  0  1  0  1  12  12 -2.44210 -2.08764 -2.89483 -3.24928 -2.97894 -3.13773  3.48409  3.47898  3.47305 -2.28346 -4.85228 10.12773 -1.24461 -6.31431
C	 -2.315569552	 1.325799898	 -0.429281664
H	 -2.273277454	 2.353763089	 -0.762302180
C	 -2.444401506	 0.296050653	 -1.360710030
H	 -2.499343077	 0.525679930	 -2.415818334
C	 -2.500899413	 -1.029095515	 -0.931541405
H	 -2.602342579	 -1.827282288	 -1.653927420
C	 -2.425522545	 -1.325669618	 0.428849949
H	 -2.469766339	 -2.353641789	 0.761667304
C	 -2.294160800	 -0.296712104	 1.360839597
H	 -2.234989732	 -0.526356829	 2.415850806
C	 -2.240643087	 1.029627005	 0.931801782
H	 -2.142973733	 1.827834093	 1.655027582
C	 2.825139088	 0.915364992	 0.000003800
H	 2.002926534	 1.514640812	 0.383842138
H	 3.235357096	 1.394562780	 -0.886414032
H	 3.617273908	 0.865285631	 0.742770319
C	 2.417532492	 -0.494877831	 -0.361833946
O	 3.237343813	 -1.329765035	 -0.725583273
N	 1.088085577	 -0.753009208	 -0.247834280
H	 0.468993012	 -0.000000029	 0.000003800
C	 0.527715476	 -2.035296629	 -0.603677413
H	 1.354121000	 -2.730116168	 -0.718252490
H	 -0.140884390	 -2.390068907	 0.178179197
H	 -0.024592833	 -1.985748358	 -1.542391160
