24
0  1  0  1  0  1  12  12 -3.93533 -3.73740 -4.24746 -4.44539 -4.31339 -4.38951 -0.43572 -0.44184 -0.44139 -3.87815 -2.70041  3.69978 -1.01289 -3.86463
C	 -0.054649236	 1.325799898	 0.429281664
H	 -0.096941334	 2.353763089	 0.762302180
C	 0.074182717	 0.296050653	 1.360710030
H	 0.129124289	 0.525679930	 2.415818334
C	 0.130680625	 -1.029095515	 0.931541405
H	 0.232123791	 -1.827282288	 1.653927420
C	 0.055303757	 -1.325669618	 -0.428849949
H	 0.099547551	 -2.353641789	 -0.761667304
C	 -0.076057988	 -0.296712104	 -1.360839597
H	 -0.135229057	 -0.526356829	 -2.415850806
C	 -0.129575701	 1.029627005	 -0.931801782
H	 -0.227245055	 1.827834093	 -1.655027582
C	 -4.046881087	 1.970802414	 -2.035762887
H	 -2.978808460	 2.078684221	 -1.862329205
H	 -4.590254780	 2.590908876	 -1.325932688
H	 -4.291283941	 2.323499825	 -3.034541841
C	 -4.532748067	 0.545693006	 -1.898464079
O	 -5.690997985	 0.232565138	 -2.147158438
N	 -3.590437213	 -0.342578782	 -1.486056130
H	 -2.676136210	 0.000000014	 -1.244362964
C	 -3.903327946	 -1.733257314	 -1.255811421
H	 -4.881285312	 -1.921785924	 -1.688135467
H	 -3.164570643	 -2.374799052	 -1.732099942
H	 -3.936998556	 -1.966501407	 -0.191317888
