24
0  1  0  1  0  1  12  12  7.74787  9.01263  5.93866  4.67390  5.75981  5.13602 25.24543 25.24882 25.25830  8.26864 -19.74477 53.73686 -6.97073 -18.75272
C	 0.408779894	 1.051025017	 0.375536055
H	 1.011938752	 1.948545699	 0.368077879
C	 1.019167880	 -0.199769627	 0.289053431
H	 2.095571302	 -0.271833326	 0.217190985
C	 0.241722635	 -1.356882700	 0.296689948
H	 0.715216333	 -2.326588694	 0.228072177
C	 -1.146179707	 -1.264257568	 0.393901978
H	 -1.749181865	 -2.161926634	 0.399409796
C	 -1.757277805	 -0.013960230	 0.482951731
H	 -2.833513775	 0.058243677	 0.559039176
C	 -0.979686023	 1.144206527	 0.472283704
H	 -1.454051418	 2.114000878	 0.537135888
C	 0.232172315	 1.925584613	 3.531954866
H	 -0.125972784	 2.091315456	 2.518662096
H	 1.256755876	 2.282294179	 3.613396375
H	 -0.371924558	 2.499220442	 4.230307585
C	 0.195325981	 0.472421501	 3.947663693
O	 0.479954386	 0.120060084	 5.086201756
N	 -0.177069289	 -0.393295243	 2.968422601
H	 -0.338197189	 -0.035304502	 2.042354261
C	 -0.213862162	 -1.820174472	 3.186509661
H	 -0.135774592	 -1.987082008	 4.256505892
H	 -1.149102698	 -2.238525048	 2.819771549
H	 0.615264315	 -2.324047236	 2.689172229
