24
0  1  0  1  0  1  12  12 -2.98509 -2.71914 -3.35763 -3.62357 -3.42581 -3.54148  1.69861  1.69705  1.69387 -2.92636 -3.50397  6.46324 -0.85969 -5.02594
C	 -2.315569552	 1.325799898	 -0.429281664
H	 -2.273277454	 2.353763089	 -0.762302180
C	 -2.444401506	 0.296050653	 -1.360710030
H	 -2.499343077	 0.525679930	 -2.415818334
C	 -2.500899413	 -1.029095515	 -0.931541405
H	 -2.602342579	 -1.827282288	 -1.653927420
C	 -2.425522545	 -1.325669618	 0.428849949
H	 -2.469766339	 -2.353641789	 0.761667304
C	 -2.294160800	 -0.296712104	 1.360839597
H	 -2.234989732	 -0.526356829	 2.415850806
C	 -2.240643087	 1.029627005	 0.931801782
H	 -2.142973733	 1.827834093	 1.655027582
C	 2.982878931	 0.915365007	 0.000001900
H	 2.160666377	 1.514640827	 0.383840238
H	 3.393096939	 1.394562795	 -0.886415932
H	 3.775013751	 0.865285646	 0.742768419
C	 2.575272335	 -0.494877816	 -0.361835846
O	 3.395083656	 -1.329765020	 -0.725585173
N	 1.245825420	 -0.753009193	 -0.247836180
H	 0.626732855	 -0.000000014	 0.000001900
C	 0.685455319	 -2.035296614	 -0.603679313
H	 1.511860843	 -2.730116153	 -0.718254390
H	 0.016855453	 -2.390068892	 0.178177297
H	 0.133147010	 -1.985748343	 -1.542393060
