24
0  1  0  1  0  1  12  12 -3.68294 -3.52409 -3.95949 -4.11834 -4.01018 -4.07193 -0.79455 -0.79531 -0.79347 -3.71351 -2.23601  2.35612 -0.57108 -3.26254
C	 -0.054649236	 1.325799898	 0.429281664
H	 -0.096941334	 2.353763089	 0.762302180
C	 0.074182717	 0.296050653	 1.360710030
H	 0.129124289	 0.525679930	 2.415818334
C	 0.130680625	 -1.029095515	 0.931541405
H	 0.232123791	 -1.827282288	 1.653927420
C	 0.055303757	 -1.325669618	 -0.428849949
H	 0.099547551	 -2.353641789	 -0.761667304
C	 -0.076057988	 -0.296712104	 -1.360839597
H	 -0.135229057	 -0.526356829	 -2.415850806
C	 -0.129575701	 1.029627005	 -0.931801782
H	 -0.227245055	 1.827834093	 -1.655027582
C	 -4.142738786	 1.970802429	 2.095024056
H	 -3.458504497	 2.078684236	 1.256762870
H	 -3.799694647	 2.590908891	 2.920514578
H	 -5.129908159	 2.323499840	 1.807293660
C	 -4.266768020	 0.545693021	 2.584446609
O	 -5.061268611	 0.232565153	 3.463173282
N	 -3.438456832	 -0.342578767	 1.974585445
H	 -2.771993909	 0.000000029	 1.303624133
C	 -3.395504432	 -1.733257299	 2.360679123
H	 -4.258886721	 -1.921785909	 2.991453023
H	 -3.438603739	 -2.374799037	 1.482752271
H	 -2.490461295	 -1.966501392	 2.922085494
