24
0  1  0  1  0  1  12  12 -5.18304 -4.88338 -5.68514 -5.98479 -5.78048 -5.89795 -0.24101 -0.25357 -0.25203 -5.16555 -3.41524  4.98412 -1.19791 -5.53652
C	 0.408779894	 1.051025017	 0.375536055
H	 1.011938752	 1.948545699	 0.368077879
C	 1.019167880	 -0.199769627	 0.289053431
H	 2.095571302	 -0.271833326	 0.217190985
C	 0.241722635	 -1.356882700	 0.296689948
H	 0.715216333	 -2.326588694	 0.228072177
C	 -1.146179707	 -1.264257568	 0.393901978
H	 -1.749181865	 -2.161926634	 0.399409796
C	 -1.757277805	 -0.013960230	 0.482951731
H	 -2.833513775	 0.058243677	 0.559039176
C	 -0.979686023	 1.144206527	 0.472283704
H	 -1.454051418	 2.114000878	 0.537135888
C	 0.247552629	 1.961232236	 4.360659381
H	 -0.110592470	 2.126963079	 3.347366611
H	 1.272136190	 2.317941802	 4.442100890
H	 -0.356544244	 2.534868065	 5.059012100
C	 0.210706295	 0.508069124	 4.776368208
O	 0.495334700	 0.155707707	 5.914906271
N	 -0.161688975	 -0.357647620	 3.797127116
H	 -0.322816875	 0.000343121	 2.871058776
C	 -0.198481848	 -1.784526849	 4.015214176
H	 -0.120394278	 -1.951434385	 5.085210407
H	 -1.133722384	 -2.202877425	 3.648476064
H	 0.630644629	 -2.288399613	 3.517876744
