24
0  1  0  1  0  1  12  12 -3.48319 -3.33068 -3.71528 -3.86779 -3.77128 -3.82718 -0.67511 -0.67965 -0.67991 -3.50212 -2.06656  2.37665 -0.70222 -3.10998
C	 -0.054649236	 1.325799898	 0.429281664
H	 -0.096941334	 2.353763089	 0.762302180
C	 0.074182717	 0.296050653	 1.360710030
H	 0.129124289	 0.525679930	 2.415818334
C	 0.130680625	 -1.029095515	 0.931541405
H	 0.232123791	 -1.827282288	 1.653927420
C	 0.055303757	 -1.325669618	 -0.428849949
H	 0.099547551	 -2.353641789	 -0.761667304
C	 -0.076057988	 -0.296712104	 -1.360839597
H	 -0.135229057	 -0.526356829	 -2.415850806
C	 -0.129575701	 1.029627005	 -0.931801782
H	 -0.227245055	 1.827834093	 -1.655027582
C	 -3.249837291	 3.801785230	 0.000003800
H	 -2.319742930	 3.389366181	 -0.383834538
H	 -3.039948837	 4.396643340	 0.886421632
H	 -3.689274699	 4.462754426	 -0.742762719
C	 -4.267340102	 2.743666151	 0.361841546
O	 -5.400279291	 3.036199979	 0.725590873
N	 -3.826164975	 1.463265661	 0.247841880
H	 -2.864493614	 1.303620362	 0.000003800
C	 -4.656473407	 0.336827208	 0.603685013
H	 -5.671407540	 0.705105616	 0.718260090
H	 -4.629415278	 -0.419583400	 -0.178171597
H	 -4.337409191	 -0.116711683	 1.542398760
