24
0  1  0  1  0  1  12  12 -3.94622 -3.61051 -4.41852 -4.75424 -4.50601 -4.64910  1.51892  1.51304  1.51403 -3.79909 -4.55507  8.06187 -1.36191 -5.94399
C	 -0.054649236	 1.325799898	 0.429281664
H	 -0.096941334	 2.353763089	 0.762302180
C	 0.074182717	 0.296050653	 1.360710030
H	 0.129124289	 0.525679930	 2.415818334
C	 0.130680625	 -1.029095515	 0.931541405
H	 0.232123791	 -1.827282288	 1.653927420
C	 0.055303757	 -1.325669618	 -0.428849949
H	 0.099547551	 -2.353641789	 -0.761667304
C	 -0.076057988	 -0.296712104	 -1.360839597
H	 -0.135229057	 -0.526356829	 -2.415850806
C	 -0.129575701	 1.029627005	 -0.931801782
H	 -0.227245055	 1.827834093	 -1.655027582
C	 -3.764725249	 1.970802386	 1.917251947
H	 -3.080490960	 2.078684193	 1.078990761
H	 -3.421681110	 2.590908848	 2.742742469
H	 -4.751894622	 2.323499797	 1.629521551
C	 -3.888754483	 0.545692978	 2.406674500
O	 -4.683255074	 0.232565110	 3.285401173
N	 -3.060443295	 -0.342578810	 1.796813336
H	 -2.393980372	 -0.000000014	 1.125852024
C	 -3.017490895	 -1.733257342	 2.182907014
H	 -3.880873184	 -1.921785952	 2.813680914
H	 -3.060590202	 -2.374799080	 1.304980162
H	 -2.112447758	 -1.966501435	 2.744313385
