24
0  1  0  1  0  1  12  12 -3.74259 -3.22087 -4.57103 -5.09275 -4.69297 -4.92579  4.73346  4.72343  4.71942 -3.55246 -6.75323 14.44748 -2.08491 -9.16181
C	 -2.315569552	 1.325799898	 -0.429281664
H	 -2.273277454	 2.353763089	 -0.762302180
C	 -2.444401506	 0.296050653	 -1.360710030
H	 -2.499343077	 0.525679930	 -2.415818334
C	 -2.500899413	 -1.029095515	 -0.931541405
H	 -2.602342579	 -1.827282288	 -1.653927420
C	 -2.425522545	 -1.325669618	 0.428849949
H	 -2.469766339	 -2.353641789	 0.761667304
C	 -2.294160800	 -0.296712104	 1.360839597
H	 -2.234989732	 -0.526356829	 2.415850806
C	 -2.240643087	 1.029627005	 0.931801782
H	 -2.142973733	 1.827834093	 1.655027582
C	 1.362157799	 1.970802371	 -0.791396123
H	 0.677923510	 2.078684178	 0.046865063
H	 1.019113660	 2.590908833	 -1.616886645
H	 2.349327173	 2.323499782	 -0.503665727
C	 1.486187034	 0.545692963	 -1.280818676
O	 2.280687625	 0.232565095	 -2.159545349
N	 0.657875846	 -0.342578825	 -0.670957512
H	 -0.008587077	 -0.000000029	 0.000003800
C	 0.614923445	 -1.733257357	 -1.057051189
H	 1.478305735	 -1.921785967	 -1.687825090
H	 0.658022753	 -2.374799095	 -0.179124338
H	 -0.290119691	 -1.966501450	 -1.618457560
