24
0  1  0  1  0  1  12  12 -3.63739 -3.45185 -3.89409 -4.07963 -3.95108 -4.02509 -0.35429 -0.35622 -0.35548 -3.61615 -2.43868  3.15029 -0.64688 -3.68089
C	 -0.054649236	 1.325799898	 0.429281664
H	 -0.096941334	 2.353763089	 0.762302180
C	 0.074182717	 0.296050653	 1.360710030
H	 0.129124289	 0.525679930	 2.415818334
C	 0.130680625	 -1.029095515	 0.931541405
H	 0.232123791	 -1.827282288	 1.653927420
C	 0.055303757	 -1.325669618	 -0.428849949
H	 0.099547551	 -2.353641789	 -0.761667304
C	 -0.076057988	 -0.296712104	 -1.360839597
H	 -0.135229057	 -0.526356829	 -2.415850806
C	 -0.129575701	 1.029627005	 -0.931801782
H	 -0.227245055	 1.827834093	 -1.655027582
C	 -5.104490286	 -0.328999828	 0.000001900
H	 -4.282277732	 0.270275992	 -0.383836438
H	 -5.514708294	 0.150197960	 0.886419732
H	 -5.896625105	 -0.379079189	 -0.742764619
C	 -4.696883689	 -1.739242651	 0.361839646
O	 -5.516695010	 -2.574129855	 0.725588973
N	 -3.367436774	 -1.997374028	 0.247839980
H	 -2.748344209	 -1.244364849	 0.000001900
C	 -2.807066674	 -3.279661450	 0.603683113
H	 -3.633472197	 -3.974480988	 0.718258190
H	 -2.138466807	 -3.634433727	 -0.178173497
H	 -2.254758365	 -3.230113179	 1.542396860
