24
0  1  0  1  0  1  12  12 -4.94675 -4.70202 -5.37496 -5.61969 -5.45791 -5.55084 -0.81944 -0.83019 -0.82876 -4.97050 -2.84625  3.48881 -0.94371 -4.66936
C	 0.408779894	 1.051025017	 0.375536055
H	 1.011938752	 1.948545699	 0.368077879
C	 1.019167880	 -0.199769627	 0.289053431
H	 2.095571302	 -0.271833326	 0.217190985
C	 0.241722635	 -1.356882700	 0.296689948
H	 0.715216333	 -2.326588694	 0.228072177
C	 -1.146179707	 -1.264257568	 0.393901978
H	 -1.749181865	 -2.161926634	 0.399409796
C	 -1.757277805	 -0.013960230	 0.482951731
H	 -2.833513775	 0.058243677	 0.559039176
C	 -0.979686023	 1.144206527	 0.472283704
H	 -1.454051418	 2.114000878	 0.537135888
C	 0.249749816	 1.966324753	 4.479045741
H	 -0.108395283	 2.132055596	 3.465752971
H	 1.274333377	 2.323034319	 4.560487250
H	 -0.354347057	 2.539960582	 5.177398460
C	 0.212903482	 0.513161641	 4.894754568
O	 0.497531887	 0.160800224	 6.033292631
N	 -0.159491788	 -0.352555103	 3.915513476
H	 -0.320619688	 0.005435638	 2.989445136
C	 -0.196284661	 -1.779434332	 4.133600536
H	 -0.118197091	 -1.946341868	 5.203596767
H	 -1.131525197	 -2.197784908	 3.766862424
H	 0.632841816	 -2.283307096	 3.636263104
