24
0  1  0  1  0  1  12  12 -3.74709 -3.50530 -4.05178 -4.29356 -4.12141 -4.22079  0.35214  0.34813  0.34847 -3.66777 -3.11615  4.85551 -0.86907 -4.53805
C	 -0.054649236	 1.325799898	 0.429281664
H	 -0.096941334	 2.353763089	 0.762302180
C	 0.074182717	 0.296050653	 1.360710030
H	 0.129124289	 0.525679930	 2.415818334
C	 0.130680625	 -1.029095515	 0.931541405
H	 0.232123791	 -1.827282288	 1.653927420
C	 0.055303757	 -1.325669618	 -0.428849949
H	 0.099547551	 -2.353641789	 -0.761667304
C	 -0.076057988	 -0.296712104	 -1.360839597
H	 -0.135229057	 -0.526356829	 -2.415850806
C	 -0.129575701	 1.029627005	 -0.931801782
H	 -0.227245055	 1.827834093	 -1.655027582
C	 -4.973611735	 -0.269744373	 0.000000000
H	 -4.151399181	 0.329531447	 -0.383838338
H	 -5.383829743	 0.209453415	 0.886417832
H	 -5.765746554	 -0.319823734	 -0.742766519
C	 -4.566005138	 -1.679987196	 0.361837746
O	 -5.385816459	 -2.514874400	 0.725587073
N	 -3.236558223	 -1.938118573	 0.247838080
H	 -2.617465658	 -1.185109394	 -0.000000000
C	 -2.676188123	 -3.220405995	 0.603681213
H	 -3.502593646	 -3.915225533	 0.718256290
H	 -2.007588256	 -3.575178272	 -0.178175397
H	 -2.123879814	 -3.170857724	 1.542394960
