24
0  1  0  1  0  1  12  12  8.19316  9.42781  6.52587  5.29122  6.35049  5.74149 25.25808 25.25802 25.26605  8.70737 -19.98349 53.76891 -6.81627 -18.26178
C	 -2.315569552	 1.325799898	 -0.429281664
H	 -2.273277454	 2.353763089	 -0.762302180
C	 -2.444401506	 0.296050653	 -1.360710030
H	 -2.499343077	 0.525679930	 -2.415818334
C	 -2.500899413	 -1.029095515	 -0.931541405
H	 -2.602342579	 -1.827282288	 -1.653927420
C	 -2.425522545	 -1.325669618	 0.428849949
H	 -2.469766339	 -2.353641789	 0.761667304
C	 -2.294160800	 -0.296712104	 1.360839597
H	 -2.234989732	 -0.526356829	 2.415850806
C	 -2.240643087	 1.029627005	 0.931801782
H	 -2.142973733	 1.827834093	 1.655027582
C	 0.723363090	 1.970802313	 0.791411323
H	 -0.344709537	 2.078684120	 0.617977640
H	 1.266736783	 2.590908775	 0.081581123
H	 0.967765945	 2.323499724	 1.790190277
C	 1.209230071	 0.545692905	 0.654112515
O	 2.367479989	 0.232565037	 0.902806874
N	 0.266919217	 -0.342578883	 0.241704566
H	 -0.647381786	 -0.000000087	 0.000011400
C	 0.579809949	 -1.733257415	 0.011459857
H	 1.557767316	 -1.921786025	 0.443783903
H	 -0.158947353	 -2.374799153	 0.487748378
H	 0.613480560	 -1.966501508	 -1.053033676
