22
0  1  0  1  0  1  11  11 -3.80756 -3.52184 -3.77030 -4.05602 -3.81161 -3.95545 -0.26621 -0.26916 -0.27518 -4.01809 -5.52464  7.79616 -1.72035 -4.56927
N	 0.364088970	 0.915974141	 -0.064588742
C	 0.381308229	 -0.426631899	 -0.054437630
H	 -0.586023060	 -0.915974141	 -0.059400810
C	 1.555393158	 -1.176189329	 -0.037905894
H	 1.504063592	 -2.255653489	 -0.030396236
C	 2.778003876	 -0.513442651	 -0.031247678
H	 3.708229574	 -1.064536411	 -0.018321710
C	 2.773631969	 0.877471294	 -0.041572031
H	 3.695515310	 1.441524296	 -0.036953092
C	 1.549797772	 1.540624930	 -0.058103862
H	 1.516019384	 2.623260917	 -0.066501830
N	 -2.634658074	 -0.916029013	 -1.470316614
C	 -3.667448222	 -1.540794162	 -2.052680516
H	 -3.640703533	 -2.623443173	 -2.031002462
C	 -4.730293211	 -0.877741571	 -2.659761616
H	 -5.533511862	 -1.441876429	 -3.112106818
C	 -4.730679683	 0.513188522	 -2.668370687
H	 -5.538418881	 1.064213366	 -3.130022056
C	 -3.665675022	 1.176055831	 -2.067999076
H	 -3.618407883	 2.255542989	 -2.047647214
C	 -2.646368080	 0.426596791	 -1.484997565
H	 -1.804023739	 0.916029013	 -1.009474424
