22
0  1  0  1  0  1  11  11 -0.24164  0.38764 -0.22069 -0.84997 -0.27164 -0.61214  6.26303  6.25632  6.24173 -0.59169 -13.64180 26.63069 -5.02281 -8.55777
N	 0.475056015	 0.915974141	 -0.002593966
C	 0.492275274	 -0.426631899	 0.007557146
H	 -0.475056015	 -0.915974141	 0.002593966
C	 1.666360203	 -1.176189329	 0.024088882
H	 1.615030637	 -2.255653489	 0.031598540
C	 2.888970921	 -0.513442651	 0.030747098
H	 3.819196619	 -1.064536411	 0.043673066
C	 2.884599014	 0.877471294	 0.020422745
H	 3.806482355	 1.441524296	 0.025041684
C	 1.660764817	 1.540624930	 0.003890914
H	 1.626986429	 2.623260917	 -0.004507054
N	 -2.184209088	 -0.916029013	 1.236381085
C	 -3.204946095	 -1.540794162	 1.839621639
H	 -3.172800006	 -2.623443173	 1.827299086
C	 -4.262116245	 -0.877741571	 2.456531850
H	 -5.055468006	 -1.441876429	 2.925967005
C	 -4.269765154	 0.513188522	 2.452562009
H	 -5.073436566	 1.064213366	 2.921258989
C	 -3.217325758	 1.176055831	 1.830426723
H	 -3.176066959	 2.255542989	 1.799668110
C	 -2.202778167	 0.426596791	 1.239181772
H	 -1.369790877	 0.916029013	 0.747451744
