22
0  1  0  1  0  1  11  11 -3.26849 -2.88830 -3.23505 -3.61524 -3.27994 -3.47803  1.15587  1.15161  1.14157 -3.49844 -7.52999 12.27153 -2.50899 -5.73099
N	 -2.701685737	 0.915974141	 0.002593966
C	 -2.718904995	 -0.426631899	 -0.007557146
H	 -1.751573706	 -0.915974141	 -0.002593966
C	 -3.892989924	 -1.176189329	 -0.024088882
H	 -3.841660359	 -2.255653489	 -0.031598540
C	 -5.115600643	 -0.513442651	 -0.030747098
H	 -6.045826341	 -1.064536411	 -0.043673066
C	 -5.111228735	 0.877471294	 -0.020422745
H	 -6.033112077	 1.441524296	 -0.025041684
C	 -3.887394539	 1.540624930	 -0.003890914
H	 -3.853616151	 2.623260917	 0.004507054
N	 0.459031224	 -0.916029013	 -0.244464670
C	 1.479768232	 -1.540794162	 -0.847705224
H	 1.447622142	 -2.623443173	 -0.835382671
C	 2.536938382	 -0.877741571	 -1.464615435
H	 3.330290143	 -1.441876429	 -1.934050590
C	 2.544587291	 0.513188522	 -1.460645594
H	 3.348258704	 1.064213366	 -1.929342575
C	 1.492147895	 1.176055831	 -0.838510308
H	 1.450889096	 2.255542989	 -0.807751695
C	 0.477600304	 0.426596791	 -0.247265357
H	 -0.355386986	 0.916029013	 0.244464670
