22
0  1  0  1  0  1  11  11 -2.68597 -2.57236 -2.62240 -2.73600 -2.64661 -2.69787 -1.12312 -1.12407 -1.12307 -2.85963 -2.50608  2.50206 -0.74529 -2.11032
N	 0.608452215	 0.853979365	 -0.002593966
C	 0.625671474	 -0.488626675	 0.007557146
H	 -0.341659815	 -0.977968917	 0.002593966
C	 1.799756403	 -1.238184105	 0.024088882
H	 1.748426837	 -2.317648265	 0.031598540
C	 3.022367121	 -0.575437427	 0.030747098
H	 3.952592819	 -1.126531187	 0.043673066
C	 3.017995214	 0.815476518	 0.020422745
H	 3.939878555	 1.379529520	 0.025041684
C	 1.794161017	 1.478630154	 0.003890914
H	 1.760382629	 2.561266141	 -0.004507054
N	 -3.537201634	 0.684034006	 0.008108062
C	 -4.876347786	 0.735773743	 0.020161202
H	 -5.388226902	 -0.218828107	 0.025562603
C	 -5.604829060	 1.921989787	 0.025836042
H	 -6.685181695	 1.894324847	 0.035702931
C	 -4.913381704	 3.128890197	 0.018573604
H	 -5.443574587	 4.071265885	 0.022641390
C	 -3.523226021	 3.091696677	 0.006008340
H	 -2.939219473	 4.001004742	 0.000000000
C	 -2.881028274	 1.855522879	 0.001248988
H	 -1.798646347	 1.795757032	 -0.008108062
