22
0  1  0  1  0  1  11  11 10.22713 11.39459 10.33068  9.16322 10.27195  9.62817 20.13292 20.12272 20.11611  8.81365 -30.01049 65.82236 -13.06942 -13.92880
N	 -0.197536786	 0.809790525	 0.010719905
C	 -0.179080786	 -0.532628975	 0.034379751
H	 0.800914967	 -0.995838833	 0.050355909
C	 -1.332844615	 -1.313268960	 0.038291351
H	 -1.252854494	 -2.390836558	 0.057878200
C	 -2.572638482	 -0.683590379	 0.016600044
H	 -3.487900432	 -1.259335121	 0.018794766
C	 -2.605220825	 0.706767974	 -0.008084958
H	 -3.541769687	 1.245853715	 -0.025657996
C	 -1.399429366	 1.402382731	 -0.009889051
H	 -1.394425289	 2.485401753	 -0.028781975
N	 2.535982915	 -0.949955697	 0.042514168
C	 3.737761731	 -1.543131933	 0.044594008
H	 3.732537879	 -2.626094386	 0.066483174
C	 4.943697968	 -0.848173375	 0.020592628
H	 5.880136294	 -1.387708553	 0.023686636
C	 4.911380360	 0.542131082	 -0.007154082
H	 5.826755297	 1.117382133	 -0.026335592
C	 3.671700029	 1.172417213	 -0.009631188
H	 3.591927298	 2.249975791	 -0.030719752
C	 2.517786458	 0.392407592	 0.015562480
H	 1.537876058	 0.856070174	 0.013899635
