22
0  1  0  1  0  1  11  11 -2.90363 -2.74887 -2.87985 -3.03461 -2.91658 -2.98479 -0.68671 -0.68827 -0.68821 -3.06719 -2.85032  3.32059 -0.78891 -2.74855
N	 0.475056015	 0.915974141	 -0.002593966
C	 0.492275274	 -0.426631899	 0.007557146
H	 -0.475056015	 -0.915974141	 0.002593966
C	 1.666360203	 -1.176189329	 0.024088882
H	 1.615030637	 -2.255653489	 0.031598540
C	 2.888970921	 -0.513442651	 0.030747098
H	 3.819196619	 -1.064536411	 0.043673066
C	 2.884599014	 0.877471294	 0.020422745
H	 3.806482355	 1.441524296	 0.025041684
C	 1.660764817	 1.540624930	 0.003890914
H	 1.626986429	 2.623260917	 -0.004507054
N	 -2.557063927	 -2.270642797	 0.008108062
C	 -3.271444930	 -3.404507516	 0.020161202
H	 -2.700675035	 -4.325108759	 0.025562603
C	 -4.662978795	 -3.442282783	 0.025836042
H	 -5.179196572	 -4.391728080	 0.035702931
C	 -5.362461532	 -2.240021603	 0.018573604
H	 -6.443679259	 -2.227994264	 0.022641390
C	 -4.635173158	 -1.054708226	 0.006008340
H	 -5.130653768	 -0.094289687	 0.000000000
C	 -3.243516371	 -1.116635562	 0.001248988
H	 -2.650566666	 -0.209148240	 -0.008108062
