22
0  1  0  1  0  1  11  11 -0.25956  0.37120 -0.22793 -0.85870 -0.27883 -0.62015  6.22632  6.21949  6.20506 -0.61617 -13.72580 26.74545 -5.07791 -8.55791
N	 0.475056015	 0.915974141	 -0.002593966
C	 0.492275274	 -0.426631899	 0.007557146
H	 -0.475056015	 -0.915974141	 0.002593966
C	 1.666360203	 -1.176189329	 0.024088882
H	 1.615030637	 -2.255653489	 0.031598540
C	 2.888970921	 -0.513442651	 0.030747098
H	 3.819196619	 -1.064536411	 0.043673066
C	 2.884599014	 0.877471294	 0.020422745
H	 3.806482355	 1.441524296	 0.025041684
C	 1.660764817	 1.540624930	 0.003890914
H	 1.626986429	 2.623260917	 -0.004507054
N	 -2.190789893	 -0.916029013	 -1.222337510
C	 -3.223580041	 -1.540794162	 -1.804701412
H	 -3.196835352	 -2.623443173	 -1.783023358
C	 -4.286425030	 -0.877741571	 -2.411782512
H	 -5.089643681	 -1.441876429	 -2.864127714
C	 -4.286811502	 0.513188522	 -2.420391583
H	 -5.094550700	 1.064213366	 -2.882042952
C	 -3.221806841	 1.176055831	 -1.820019972
H	 -3.174539702	 2.255542989	 -1.799668110
C	 -2.202499899	 0.426596791	 -1.237018461
H	 -1.360155558	 0.916029013	 -0.761495320
