22
0  1  0  1  0  1  11  11 -3.36398 -2.99363 -3.32850 -3.69886 -3.37324 -3.56554  0.97176  0.96765  0.95804 -3.59155 -7.31103 11.74707 -2.41508 -5.61251
N	 0.252931017	 0.915974141	 0.121395586
C	 0.270150276	 -0.426631899	 0.131546698
H	 -0.697181013	 -0.915974141	 0.126583518
C	 1.444235205	 -1.176189329	 0.148078434
H	 1.392905639	 -2.255653489	 0.155588092
C	 2.666845923	 -0.513442651	 0.154736650
H	 3.597071621	 -1.064536411	 0.167662618
C	 2.662474016	 0.877471294	 0.144412297
H	 3.584357357	 1.441524296	 0.149031236
C	 1.438639819	 1.540624930	 0.127880466
H	 1.404861431	 2.623260917	 0.119482498
N	 -2.628459083	 -0.916029013	 1.484360189
C	 -3.649196091	 -1.540794162	 2.087600743
H	 -3.617050001	 -2.623443173	 2.075278190
C	 -4.706366240	 -0.877741571	 2.704510954
H	 -5.499718002	 -1.441876429	 3.173946109
C	 -4.714015150	 0.513188522	 2.700541113
H	 -5.517686562	 1.064213366	 3.169238093
C	 -3.661575753	 1.176055831	 2.078405827
H	 -3.620316954	 2.255542989	 2.047647214
C	 -2.647028163	 0.426596791	 1.487160876
H	 -1.814040872	 0.916029013	 0.995430848
