22
0  1  0  1  0  1  11  11 -3.85072 -3.63053 -3.82318 -4.04337 -3.86055 -3.96746 -0.94441 -0.94619 -0.94906 -4.04392 -4.21924  5.13641 -1.22713 -3.73397
N	 0.475056015	 0.915974141	 -0.002593966
C	 0.492275274	 -0.426631899	 0.007557146
H	 -0.475056015	 -0.915974141	 0.002593966
C	 1.666360203	 -1.176189329	 0.024088882
H	 1.615030637	 -2.255653489	 0.031598540
C	 2.888970921	 -0.513442651	 0.030747098
H	 3.819196619	 -1.064536411	 0.043673066
C	 2.884599014	 0.877471294	 0.020422745
H	 3.806482355	 1.441524296	 0.025041684
C	 1.660764817	 1.540624930	 0.003890914
H	 1.626986429	 2.623260917	 -0.004507054
N	 -2.634658074	 -0.916029013	 -1.470316614
C	 -3.667448222	 -1.540794162	 -2.052680516
H	 -3.640703533	 -2.623443173	 -2.031002462
C	 -4.730293211	 -0.877741571	 -2.659761616
H	 -5.533511862	 -1.441876429	 -3.112106818
C	 -4.730679683	 0.513188522	 -2.668370687
H	 -5.538418881	 1.064213366	 -3.130022056
C	 -3.665675022	 1.176055831	 -2.067999076
H	 -3.618407883	 2.255542989	 -2.047647214
C	 -2.646368080	 0.426596791	 -1.484997565
H	 -1.804023739	 0.916029013	 -1.009474424
