22
0  1  0  1  0  1  11  11 -3.38132 -3.25034 -3.38007 -3.51105 -3.40831 -3.46716 -1.40557 -1.40565 -1.40435 -3.53439 -2.57590  2.20509 -0.64184 -2.52174
N	 0.697181013	 0.915974141	 -0.126583518
C	 0.714400272	 -0.426631899	 -0.116432406
H	 -0.252931017	 -0.915974141	 -0.121395586
C	 1.888485201	 -1.176189329	 -0.099900670
H	 1.837155635	 -2.255653489	 -0.092391012
C	 3.111095919	 -0.513442651	 -0.093242454
H	 4.041321617	 -1.064536411	 -0.080316486
C	 3.106724012	 0.877471294	 -0.103566807
H	 4.028607353	 1.441524296	 -0.098947868
C	 1.882889815	 1.540624930	 -0.120098638
H	 1.849111427	 2.623260917	 -0.128496606
N	 -2.628459083	 -0.916029013	 1.484360189
C	 -3.649196091	 -1.540794162	 2.087600743
H	 -3.617050001	 -2.623443173	 2.075278190
C	 -4.706366240	 -0.877741571	 2.704510954
H	 -5.499718002	 -1.441876429	 3.173946109
C	 -4.714015150	 0.513188522	 2.700541113
H	 -5.517686562	 1.064213366	 3.169238093
C	 -3.661575753	 1.176055831	 2.078405827
H	 -3.620316954	 2.255542989	 2.047647214
C	 -2.647028163	 0.426596791	 1.487160876
H	 -1.814040872	 0.916029013	 0.995430848
