22
0  1  0  1  0  1  11  11 11.66614 12.61154 11.82911 10.88371 11.78028 11.24903 19.39593 19.38943 19.35879  9.34233 -28.39649 62.29433 -12.96792 -11.58759
N	 0.475056015	 0.915974141	 -0.002593966
C	 0.492275274	 -0.426631899	 0.007557146
H	 -0.475056015	 -0.915974141	 0.002593966
C	 1.666360203	 -1.176189329	 0.024088882
H	 1.615030637	 -2.255653489	 0.031598540
C	 2.888970921	 -0.513442651	 0.030747098
H	 3.819196619	 -1.064536411	 0.043673066
C	 2.884599014	 0.877471294	 0.020422745
H	 3.806482355	 1.441524296	 0.025041684
C	 1.660764817	 1.540624930	 0.003890914
H	 1.626986429	 2.623260917	 -0.004507054
N	 -2.736824437	 0.312065350	 0.008108062
C	 -4.075970589	 0.363805087	 0.020161202
H	 -4.587849705	 -0.590796763	 0.025562603
C	 -4.804451863	 1.550021131	 0.025836042
H	 -5.884804498	 1.522356191	 0.035702931
C	 -4.113004507	 2.756921541	 0.018573604
H	 -4.643197390	 3.699297229	 0.022641390
C	 -2.722848824	 2.719728021	 0.006008340
H	 -2.138842276	 3.629036086	 0.000000000
C	 -2.080651077	 1.483554223	 0.001248988
H	 -0.998269150	 1.423788376	 -0.008108062
