22
0  1  0  1  0  1  11  11 -2.87238 -2.66657 -2.76788 -2.97370 -2.79937 -2.90147 -0.44197 -0.44425 -0.44737 -3.12435 -4.65378  6.40603 -1.56018 -3.31642
N	 0.341659815	 0.977968917	 -0.002593966
C	 0.358879074	 -0.364637123	 0.007557146
H	 -0.608452215	 -0.853979365	 0.002593966
C	 1.532964003	 -1.114194553	 0.024088882
H	 1.481634437	 -2.193658713	 0.031598540
C	 2.755574721	 -0.451447875	 0.030747098
H	 3.685800419	 -1.002541635	 0.043673066
C	 2.751202814	 0.939466070	 0.020422745
H	 3.673086155	 1.503519072	 0.025041684
C	 1.527368617	 1.602619706	 0.003890914
H	 1.493590229	 2.685255693	 -0.004507054
N	 -3.537201634	 0.684034006	 0.008108062
C	 -4.876347786	 0.735773743	 0.020161202
H	 -5.388226902	 -0.218828107	 0.025562603
C	 -5.604829060	 1.921989787	 0.025836042
H	 -6.685181695	 1.894324847	 0.035702931
C	 -4.913381704	 3.128890197	 0.018573604
H	 -5.443574587	 4.071265885	 0.022641390
C	 -3.523226021	 3.091696677	 0.006008340
H	 -2.939219473	 4.001004742	 0.000000000
C	 -2.881028274	 1.855522879	 0.001248988
H	 -1.798646347	 1.795757032	 -0.008108062
