22
0  1  0  1  0  1  11  11 -2.89923 -2.69457 -2.86791 -3.07257 -2.90926 -3.00425 -0.14257 -0.14507 -0.14642 -3.08237 -3.79321  5.29415 -1.15175 -3.43156
N	 0.475056015	 0.915974141	 -0.002593966
C	 0.492275274	 -0.426631899	 0.007557146
H	 -0.475056015	 -0.915974141	 0.002593966
C	 1.666360203	 -1.176189329	 0.024088882
H	 1.615030637	 -2.255653489	 0.031598540
C	 2.888970921	 -0.513442651	 0.030747098
H	 3.819196619	 -1.064536411	 0.043673066
C	 2.884599014	 0.877471294	 0.020422745
H	 3.806482355	 1.441524296	 0.025041684
C	 1.660764817	 1.540624930	 0.003890914
H	 1.626986429	 2.623260917	 -0.004507054
N	 -2.426873162	 -2.208648021	 0.008108062
C	 -3.141254165	 -3.342512740	 0.020161202
H	 -2.570484270	 -4.263113983	 0.025562603
C	 -4.532788030	 -3.380288007	 0.025836042
H	 -5.049005807	 -4.329733304	 0.035702931
C	 -5.232270767	 -2.178026827	 0.018573604
H	 -6.313488494	 -2.165999488	 0.022641390
C	 -4.504982393	 -0.992713450	 0.006008340
H	 -5.000463003	 -0.032294911	 0.000000000
C	 -3.113325606	 -1.054640786	 0.001248988
H	 -2.520375901	 -0.147153464	 -0.008108062
