22
0  1  0  1  0  1  11  11 -2.51443 -2.39926 -2.44822 -2.56339 -2.47210 -2.52462 -0.87767 -0.87850 -0.87790 -2.70355 -2.42392  2.70461 -0.78745 -2.19679
N	 -3.101990139	 0.915974141	 0.002593966
C	 -3.119209397	 -0.426631899	 -0.007557146
H	 -2.151878108	 -0.915974141	 -0.002593966
C	 -4.293294326	 -1.176189329	 -0.024088882
H	 -4.241964761	 -2.255653489	 -0.031598540
C	 -5.515905045	 -0.513442651	 -0.030747098
H	 -6.446130743	 -1.064536411	 -0.043673066
C	 -5.511533137	 0.877471294	 -0.020422745
H	 -6.433416479	 1.441524296	 -0.025041684
C	 -4.287698941	 1.540624930	 -0.003890914
H	 -4.253920553	 2.623260917	 0.004507054
N	 0.416319303	 -1.030747278	 -0.008108062
C	 1.130700306	 -2.164611997	 -0.020161202
H	 0.559930411	 -3.085213240	 -0.025562603
C	 2.522234172	 -2.202387265	 -0.025836042
H	 3.038451948	 -3.151832561	 -0.035702931
C	 3.221716908	 -1.000126084	 -0.018573604
H	 4.302934636	 -0.988098746	 -0.022641390
C	 2.494428535	 0.185187293	 -0.006008340
H	 2.989909144	 1.145605832	 0.000000000
C	 1.102771747	 0.123259957	 -0.001248988
H	 0.509822043	 1.030747278	 0.008108062
