22
0  1  0  1  0  1  11  11 -3.82458 -3.59882 -3.80328 -4.02904 -3.84072 -3.95097 -0.84749 -0.84930 -0.85257 -4.01921 -4.30443  5.36708 -1.26297 -3.81889
N	 -2.954847053	 0.915974141	 0.002593966
C	 -2.972066311	 -0.426631899	 -0.007557146
H	 -2.004735022	 -0.915974141	 -0.002593966
C	 -4.146151240	 -1.176189329	 -0.024088882
H	 -4.094821675	 -2.255653489	 -0.031598540
C	 -5.368761959	 -0.513442651	 -0.030747098
H	 -6.298987657	 -1.064536411	 -0.043673066
C	 -5.364390051	 0.877471294	 -0.020422745
H	 -6.286273393	 1.441524296	 -0.025041684
C	 -4.140555855	 1.540624930	 -0.003890914
H	 -4.106777467	 2.623260917	 0.004507054
N	 0.459031224	 -0.916029013	 -0.244464670
C	 1.479768232	 -1.540794162	 -0.847705224
H	 1.447622142	 -2.623443173	 -0.835382671
C	 2.536938382	 -0.877741571	 -1.464615435
H	 3.330290143	 -1.441876429	 -1.934050590
C	 2.544587291	 0.513188522	 -1.460645594
H	 3.348258704	 1.064213366	 -1.929342575
C	 1.492147895	 1.176055831	 -0.838510308
H	 1.450889096	 2.255542989	 -0.807751695
C	 0.477600304	 0.426596791	 -0.247265357
H	 -0.355386986	 0.916029013	 0.244464670
