22
0  1  0  1  0  1  11  11 -2.32452 -2.23710 -2.32959 -2.41700 -2.35789 -2.39120 -0.80290 -0.80336 -0.80132 -2.44515 -1.55533  1.27467 -0.35063 -1.81386
N	 -2.954847053	 0.915974141	 0.002593966
C	 -2.972066311	 -0.426631899	 -0.007557146
H	 -2.004735022	 -0.915974141	 -0.002593966
C	 -4.146151240	 -1.176189329	 -0.024088882
H	 -4.094821675	 -2.255653489	 -0.031598540
C	 -5.368761959	 -0.513442651	 -0.030747098
H	 -6.298987657	 -1.064536411	 -0.043673066
C	 -5.364390051	 0.877471294	 -0.020422745
H	 -6.286273393	 1.441524296	 -0.025041684
C	 -4.140555855	 1.540624930	 -0.003890914
H	 -4.106777467	 2.623260917	 0.004507054
N	 1.576613149	 -0.555861513	 -0.008108062
C	 2.915759301	 -0.504121776	 -0.020161202
H	 3.427638417	 -1.458723626	 -0.025562603
C	 3.644240576	 0.682094268	 -0.025836042
H	 4.724593210	 0.654429328	 -0.035702931
C	 2.952793219	 1.888994678	 -0.018573604
H	 3.482986103	 2.831370366	 -0.022641390
C	 1.562637537	 1.851801159	 -0.006008340
H	 0.978630988	 2.761109223	 0.000000000
C	 0.920439789	 0.615627360	 -0.001248988
H	 -0.161942137	 0.555861513	 0.008108062
