22
0  1  0  1  0  1  11  11  9.47157 10.55318  9.42605  8.34444  9.36798  8.76968 19.30768 19.29923 19.28366  8.38178 -26.76085 59.31285 -10.88193 -13.28829
N	 0.475056015	 0.915974141	 -0.002593966
C	 0.492275274	 -0.426631899	 0.007557146
H	 -0.475056015	 -0.915974141	 0.002593966
C	 1.666360203	 -1.176189329	 0.024088882
H	 1.615030637	 -2.255653489	 0.031598540
C	 2.888970921	 -0.513442651	 0.030747098
H	 3.819196619	 -1.064536411	 0.043673066
C	 2.884599014	 0.877471294	 0.020422745
H	 3.806482355	 1.441524296	 0.025041684
C	 1.660764817	 1.540624930	 0.003890914
H	 1.626986429	 2.623260917	 -0.004507054
N	 -1.962084090	 -0.916029013	 1.112391533
C	 -2.982821098	 -1.540794162	 1.715632087
H	 -2.950675008	 -2.623443173	 1.703309534
C	 -4.039991247	 -0.877741571	 2.332542298
H	 -4.833343009	 -1.441876429	 2.801977453
C	 -4.047640157	 0.513188522	 2.328572457
H	 -4.851311569	 1.064213366	 2.797269437
C	 -2.995200760	 1.176055831	 1.706437171
H	 -2.953941961	 2.255542989	 1.675678558
C	 -1.980653170	 0.426596791	 1.115192220
H	 -1.147665879	 0.916029013	 0.623462192
