22
0  1  0  1  0  1  11  11 -2.12251 -1.83832 -1.99719 -2.28137 -2.02965 -2.17764  1.05277  1.05062  1.04478 -2.47991 -6.70470 11.03445 -2.44230 -4.36737
N	 -2.660560882	 0.915974141	 0.002593966
C	 -2.677780140	 -0.426631899	 -0.007557146
H	 -1.710448851	 -0.915974141	 -0.002593966
C	 -3.851865069	 -1.176189329	 -0.024088882
H	 -3.800535504	 -2.255653489	 -0.031598540
C	 -5.074475788	 -0.513442651	 -0.030747098
H	 -6.004701486	 -1.064536411	 -0.043673066
C	 -5.070103880	 0.877471294	 -0.020422745
H	 -5.991987222	 1.441524296	 -0.025041684
C	 -3.846269684	 1.540624930	 -0.003890914
H	 -3.812491296	 2.623260917	 0.004507054
N	 0.416319303	 -1.030747278	 -0.008108062
C	 1.130700306	 -2.164611997	 -0.020161202
H	 0.559930411	 -3.085213240	 -0.025562603
C	 2.522234172	 -2.202387265	 -0.025836042
H	 3.038451948	 -3.151832561	 -0.035702931
C	 3.221716908	 -1.000126084	 -0.018573604
H	 4.302934636	 -0.988098746	 -0.022641390
C	 2.494428535	 0.185187293	 -0.006008340
H	 2.989909144	 1.145605832	 0.000000000
C	 1.102771747	 0.123259957	 -0.001248988
H	 0.509822043	 1.030747278	 0.008108062
