22
0  1  0  1  0  1  11  11 -0.19183  0.49641 -0.05988 -0.74812 -0.11284 -0.48407  6.45280  6.44443  6.43506 -0.61288 -15.61294 30.05630 -6.05648 -8.99976
N	 -0.445428271	 0.803207469	 0.011052905
C	 -0.426972271	 -0.539212031	 0.034712751
H	 0.553023482	 -1.002421889	 0.050688910
C	 -1.580736100	 -1.319852016	 0.038624352
H	 -1.500745979	 -2.397419614	 0.058211200
C	 -2.820529967	 -0.690173435	 0.016933045
H	 -3.735791917	 -1.265918177	 0.019127767
C	 -2.853112310	 0.700184918	 -0.007751958
H	 -3.789661172	 1.239270659	 -0.025324995
C	 -1.647320851	 1.395799675	 -0.009556051
H	 -1.642316774	 2.478818697	 -0.028448974
N	 2.535982915	 -0.949955697	 0.042514168
C	 3.737761731	 -1.543131933	 0.044594008
H	 3.732537879	 -2.626094386	 0.066483174
C	 4.943697968	 -0.848173375	 0.020592628
H	 5.880136294	 -1.387708553	 0.023686636
C	 4.911380360	 0.542131082	 -0.007154082
H	 5.826755297	 1.117382133	 -0.026335592
C	 3.671700029	 1.172417213	 -0.009631188
H	 3.591927298	 2.249975791	 -0.030719752
C	 2.517786458	 0.392407592	 0.015562480
H	 1.537876058	 0.856070174	 0.013899635
