22
0  1  0  1  0  1  11  11 -3.63465 -3.22301 -3.51207 -3.92371 -3.56195 -3.77467  0.84389  0.83774  0.82926 -3.86961 -8.50669 13.48148 -2.91728 -5.92711
N	 -0.693319756	 0.796624413	 0.011385906
C	 -0.674863756	 -0.545795087	 0.035045752
H	 0.305131997	 -1.009004945	 0.051021910
C	 -1.828627585	 -1.326435072	 0.038957352
H	 -1.748637464	 -2.404002670	 0.058544201
C	 -3.068421452	 -0.696756491	 0.017266045
H	 -3.983683402	 -1.272501233	 0.019460767
C	 -3.101003795	 0.693601862	 -0.007418957
H	 -4.037552657	 1.232687603	 -0.024991995
C	 -1.895212336	 1.389216619	 -0.009223050
H	 -1.890208259	 2.472235641	 -0.028115974
N	 2.535982915	 -0.949955697	 0.042514168
C	 3.737761731	 -1.543131933	 0.044594008
H	 3.732537879	 -2.626094386	 0.066483174
C	 4.943697968	 -0.848173375	 0.020592628
H	 5.880136294	 -1.387708553	 0.023686636
C	 4.911380360	 0.542131082	 -0.007154082
H	 5.826755297	 1.117382133	 -0.026335592
C	 3.671700029	 1.172417213	 -0.009631188
H	 3.591927298	 2.249975791	 -0.030719752
C	 2.517786458	 0.392407592	 0.015562480
H	 1.537876058	 0.856070174	 0.013899635
