22
0  1  0  1  0  1  11  11 10.14891 11.25641 10.10454  8.99703 10.04599  9.43284 20.14828 20.13962 20.12370  8.98261 -27.56717 61.41790 -11.31885 -13.54928
N	 -2.196307032	 0.915974141	 0.002593966
C	 -2.213526290	 -0.426631899	 -0.007557146
H	 -1.246195001	 -0.915974141	 -0.002593966
C	 -3.387611219	 -1.176189329	 -0.024088882
H	 -3.336281654	 -2.255653489	 -0.031598540
C	 -4.610221938	 -0.513442651	 -0.030747098
H	 -5.540447636	 -1.064536411	 -0.043673066
C	 -4.605850030	 0.877471294	 -0.020422745
H	 -5.527733372	 1.441524296	 -0.025041684
C	 -3.382015834	 1.540624930	 -0.003890914
H	 -3.348237446	 2.623260917	 0.004507054
N	 0.463992865	 -0.916029013	 0.230421095
C	 1.496783013	 -1.540794162	 0.812784997
H	 1.470038324	 -2.623443173	 0.791106943
C	 2.559628003	 -0.877741571	 1.419866098
H	 3.362846653	 -1.441876429	 1.872211299
C	 2.560014474	 0.513188522	 1.428475168
H	 3.367753673	 1.064213366	 1.890126537
C	 1.495009814	 1.176055831	 0.828103558
H	 1.447742675	 2.255542989	 0.807751695
C	 0.475702871	 0.426596791	 0.245102046
H	 -0.366641469	 0.916029013	 -0.230421095
