22
0  1  0  1  0  1  11  11 -4.12893 -3.80959 -4.02155 -4.34088 -4.06895 -4.22850 -0.44429 -0.44908 -0.45462 -4.34087 -6.42435  8.97766 -2.05571 -4.83848
N	 -0.817265498	 0.793332885	 0.011552407
C	 -0.798809498	 -0.549086615	 0.035212253
H	 0.181186255	 -1.012296473	 0.051188411
C	 -1.952573327	 -1.329726600	 0.039123853
H	 -1.872583206	 -2.407294198	 0.058710702
C	 -3.192367194	 -0.700048019	 0.017432546
H	 -4.107629144	 -1.275792761	 0.019627268
C	 -3.224949537	 0.690310334	 -0.007252456
H	 -4.161498399	 1.229396075	 -0.024825494
C	 -2.019158078	 1.385925091	 -0.009056549
H	 -2.014154001	 2.468944113	 -0.027949473
N	 2.535982915	 -0.949955697	 0.042514168
C	 3.737761731	 -1.543131933	 0.044594008
H	 3.732537879	 -2.626094386	 0.066483174
C	 4.943697968	 -0.848173375	 0.020592628
H	 5.880136294	 -1.387708553	 0.023686636
C	 4.911380360	 0.542131082	 -0.007154082
H	 5.826755297	 1.117382133	 -0.026335592
C	 3.671700029	 1.172417213	 -0.009631188
H	 3.591927298	 2.249975791	 -0.030719752
C	 2.517786458	 0.392407592	 0.015562480
H	 1.537876058	 0.856070174	 0.013899635
