22
0  1  0  1  0  1  11  11 -3.69156 -3.51642 -3.67696 -3.85210 -3.71047 -3.79268 -1.23869 -1.23962 -1.24040 -3.86786 -3.35883  3.54781 -0.91669 -3.14016
N	 -3.081270390	 0.915974141	 0.002593966
C	 -3.098489648	 -0.426631899	 -0.007557146
H	 -2.131158359	 -0.915974141	 -0.002593966
C	 -4.272574577	 -1.176189329	 -0.024088882
H	 -4.221245012	 -2.255653489	 -0.031598540
C	 -5.495185296	 -0.513442651	 -0.030747098
H	 -6.425410994	 -1.064536411	 -0.043673066
C	 -5.490813388	 0.877471294	 -0.020422745
H	 -6.412696730	 1.441524296	 -0.025041684
C	 -4.266979192	 1.540624930	 -0.003890914
H	 -4.233200804	 2.623260917	 0.004507054
N	 0.463992865	 -0.916029013	 0.230421095
C	 1.496783013	 -1.540794162	 0.812784997
H	 1.470038324	 -2.623443173	 0.791106943
C	 2.559628003	 -0.877741571	 1.419866098
H	 3.362846653	 -1.441876429	 1.872211299
C	 2.560014474	 0.513188522	 1.428475168
H	 3.367753673	 1.064213366	 1.890126537
C	 1.495009814	 1.176055831	 0.828103558
H	 1.447742675	 2.255542989	 0.807751695
C	 0.475702871	 0.426596791	 0.245102046
H	 -0.366641469	 0.916029013	 -0.230421095
