22
0  1  0  1  0  1  11  11 -2.73810 -2.62088 -2.72391 -2.84112 -2.75571 -2.80459 -0.95076 -0.95156 -0.95039 -2.88230 -2.19861  2.07582 -0.54872 -2.21080
N	 0.475056015	 0.915974141	 -0.002593966
C	 0.492275274	 -0.426631899	 0.007557146
H	 -0.475056015	 -0.915974141	 0.002593966
C	 1.666360203	 -1.176189329	 0.024088882
H	 1.615030637	 -2.255653489	 0.031598540
C	 2.888970921	 -0.513442651	 0.030747098
H	 3.819196619	 -1.064536411	 0.043673066
C	 2.884599014	 0.877471294	 0.020422745
H	 3.806482355	 1.441524296	 0.025041684
C	 1.660764817	 1.540624930	 0.003890914
H	 1.626986429	 2.623260917	 -0.004507054
N	 -2.687254692	 -2.332637573	 0.008108062
C	 -3.401635695	 -3.466502292	 0.020161202
H	 -2.830865800	 -4.387103535	 0.025562603
C	 -4.793169560	 -3.504277559	 0.025836042
H	 -5.309387337	 -4.453722856	 0.035702931
C	 -5.492652297	 -2.302016379	 0.018573604
H	 -6.573870024	 -2.289989040	 0.022641390
C	 -4.765363923	 -1.116703002	 0.006008340
H	 -5.260844533	 -0.156284463	 0.000000000
C	 -3.373707136	 -1.178630338	 0.001248988
H	 -2.780757431	 -0.271143016	 -0.008108062
