22
0  1  0  1  0  1  11  11 -2.41147 -2.32663 -2.36536 -2.45019 -2.38553 -2.42205 -1.15042 -1.15081 -1.14876 -2.55292 -1.88722  1.55902 -0.52823 -1.69650
N	 0.741848414	 0.791984589	 -0.002593966
C	 0.759067673	 -0.550621451	 0.007557146
H	 -0.208263616	 -1.039963693	 0.002593966
C	 1.933152602	 -1.300178881	 0.024088882
H	 1.881823036	 -2.379643041	 0.031598540
C	 3.155763320	 -0.637432203	 0.030747098
H	 4.085989018	 -1.188525963	 0.043673066
C	 3.151391413	 0.753481742	 0.020422745
H	 4.073274754	 1.317534744	 0.025041684
C	 1.927557216	 1.416635378	 0.003890914
H	 1.893778828	 2.499271365	 -0.004507054
N	 -3.537201634	 0.684034006	 0.008108062
C	 -4.876347786	 0.735773743	 0.020161202
H	 -5.388226902	 -0.218828107	 0.025562603
C	 -5.604829060	 1.921989787	 0.025836042
H	 -6.685181695	 1.894324847	 0.035702931
C	 -4.913381704	 3.128890197	 0.018573604
H	 -5.443574587	 4.071265885	 0.022641390
C	 -3.523226021	 3.091696677	 0.006008340
H	 -2.939219473	 4.001004742	 0.000000000
C	 -2.881028274	 1.855522879	 0.001248988
H	 -1.798646347	 1.795757032	 -0.008108062
