22
0  1  0  1  0  1  11  11 -3.39678 -3.26527 -3.39121 -3.52271 -3.41973 -3.47871 -1.42575 -1.42589 -1.42457 -3.55004 -2.59718  2.21609 -0.64816 -2.52078
N	 0.696990106	 0.915974141	 0.121395586
C	 0.714209365	 -0.426631899	 0.131546698
H	 -0.253121924	 -0.915974141	 0.126583518
C	 1.888294294	 -1.176189329	 0.148078434
H	 1.836964728	 -2.255653489	 0.155588092
C	 3.110905012	 -0.513442651	 0.154736650
H	 4.041130710	 -1.064536411	 0.167662618
C	 3.106533105	 0.877471294	 0.144412297
H	 4.028416446	 1.441524296	 0.149031236
C	 1.882698908	 1.540624930	 0.127880466
H	 1.848920520	 2.623260917	 0.119482498
N	 -2.634658074	 -0.916029013	 -1.470316614
C	 -3.667448222	 -1.540794162	 -2.052680516
H	 -3.640703533	 -2.623443173	 -2.031002462
C	 -4.730293211	 -0.877741571	 -2.659761616
H	 -5.533511862	 -1.441876429	 -3.112106818
C	 -4.730679683	 0.513188522	 -2.668370687
H	 -5.538418881	 1.064213366	 -3.130022056
C	 -3.665675022	 1.176055831	 -2.067999076
H	 -3.618407883	 2.255542989	 -2.047647214
C	 -2.646368080	 0.426596791	 -1.484997565
H	 -1.804023739	 0.916029013	 -1.009474424
