22
0  1  0  1  0  1  11  11 -2.57147 -2.30010 -2.53758 -2.80895 -2.58295 -2.71467  0.86386  0.86036  0.85784 -2.78102 -5.17697  8.40447 -1.70563 -4.30288
N	 0.475056015	 0.915974141	 -0.002593966
C	 0.492275274	 -0.426631899	 0.007557146
H	 -0.475056015	 -0.915974141	 0.002593966
C	 1.666360203	 -1.176189329	 0.024088882
H	 1.615030637	 -2.255653489	 0.031598540
C	 2.888970921	 -0.513442651	 0.030747098
H	 3.819196619	 -1.064536411	 0.043673066
C	 2.884599014	 0.877471294	 0.020422745
H	 3.806482355	 1.441524296	 0.025041684
C	 1.660764817	 1.540624930	 0.003890914
H	 1.626986429	 2.623260917	 -0.004507054
N	 -2.296682397	 -2.146653245	 0.008108062
C	 -3.011063400	 -3.280517964	 0.020161202
H	 -2.440293505	 -4.201119207	 0.025562603
C	 -4.402597265	 -3.318293231	 0.025836042
H	 -4.918815042	 -4.267738528	 0.035702931
C	 -5.102080002	 -2.116032051	 0.018573604
H	 -6.183297729	 -2.104004712	 0.022641390
C	 -4.374791628	 -0.930718674	 0.006008340
H	 -4.870272238	 0.029699865	 0.000000000
C	 -2.983134841	 -0.992646010	 0.001248988
H	 -2.390185136	 -0.085158688	 -0.008108062
