22
0  1  0  1  0  1  11  11 -2.57431 -2.37313 -2.56030 -2.76148 -2.60268 -2.69482  0.31959  0.31730  0.31651 -2.74785 -3.40459  5.19232 -1.05570 -3.47988
N	 -2.954847053	 0.915974141	 0.002593966
C	 -2.972066311	 -0.426631899	 -0.007557146
H	 -2.004735022	 -0.915974141	 -0.002593966
C	 -4.146151240	 -1.176189329	 -0.024088882
H	 -4.094821675	 -2.255653489	 -0.031598540
C	 -5.368761959	 -0.513442651	 -0.030747098
H	 -6.298987657	 -1.064536411	 -0.043673066
C	 -5.364390051	 0.877471294	 -0.020422745
H	 -6.286273393	 1.441524296	 -0.025041684
C	 -4.140555855	 1.540624930	 -0.003890914
H	 -4.106777467	 2.623260917	 0.004507054
N	 1.142004984	 -0.555861513	 -0.008108062
C	 2.481151136	 -0.504121776	 -0.020161202
H	 2.993030252	 -1.458723626	 -0.025562603
C	 3.209632411	 0.682094268	 -0.025836042
H	 4.289985045	 0.654429328	 -0.035702931
C	 2.518185054	 1.888994678	 -0.018573604
H	 3.048377938	 2.831370366	 -0.022641390
C	 1.128029372	 1.851801159	 -0.006008340
H	 0.544022823	 2.761109223	 0.000000000
C	 0.485831624	 0.615627360	 -0.001248988
H	 -0.596550302	 0.555861513	 0.008108062
