22
0  1  0  1  0  1  11  11 -3.78720 -3.50233 -3.75670 -4.04157 -3.79784 -3.94128 -0.23667 -0.23951 -0.24553 -3.99678 -5.48358  7.75988 -1.70260 -4.57048
N	 0.363993516	 0.915974141	 0.059400810
C	 0.381212775	 -0.426631899	 0.069551922
H	 -0.586118514	 -0.915974141	 0.064588742
C	 1.555297704	 -1.176189329	 0.086083658
H	 1.503968138	 -2.255653489	 0.093593316
C	 2.777908422	 -0.513442651	 0.092741874
H	 3.708134120	 -1.064536411	 0.105667842
C	 2.773536515	 0.877471294	 0.082417521
H	 3.695419856	 1.441524296	 0.087036460
C	 1.549702318	 1.540624930	 0.065885690
H	 1.515923930	 2.623260917	 0.057487722
N	 -2.628459083	 -0.916029013	 1.484360189
C	 -3.649196091	 -1.540794162	 2.087600743
H	 -3.617050001	 -2.623443173	 2.075278190
C	 -4.706366240	 -0.877741571	 2.704510954
H	 -5.499718002	 -1.441876429	 3.173946109
C	 -4.714015150	 0.513188522	 2.700541113
H	 -5.517686562	 1.064213366	 3.169238093
C	 -3.661575753	 1.176055831	 2.078405827
H	 -3.620316954	 2.255542989	 2.047647214
C	 -2.647028163	 0.426596791	 1.487160876
H	 -1.814040872	 0.916029013	 0.995430848
