22
0  1  0  1  0  1  11  11 -2.60323 -2.39315 -2.49691 -2.70699 -2.52691 -2.63251 -0.06713 -0.06872 -0.07224 -2.88510 -4.71230  6.92894 -1.64787 -3.45387
N	 -2.807703967	 0.915974141	 0.002593966
C	 -2.824923225	 -0.426631899	 -0.007557146
H	 -1.857591936	 -0.915974141	 -0.002593966
C	 -3.999008154	 -1.176189329	 -0.024088882
H	 -3.947678589	 -2.255653489	 -0.031598540
C	 -5.221618873	 -0.513442651	 -0.030747098
H	 -6.151844571	 -1.064536411	 -0.043673066
C	 -5.217246965	 0.877471294	 -0.020422745
H	 -6.139130307	 1.441524296	 -0.025041684
C	 -3.993412769	 1.540624930	 -0.003890914
H	 -3.959634381	 2.623260917	 0.004507054
N	 0.416319303	 -1.030747278	 -0.008108062
C	 1.130700306	 -2.164611997	 -0.020161202
H	 0.559930411	 -3.085213240	 -0.025562603
C	 2.522234172	 -2.202387265	 -0.025836042
H	 3.038451948	 -3.151832561	 -0.035702931
C	 3.221716908	 -1.000126084	 -0.018573604
H	 4.302934636	 -0.988098746	 -0.022641390
C	 2.494428535	 0.185187293	 -0.006008340
H	 2.989909144	 1.145605832	 0.000000000
C	 1.102771747	 0.123259957	 -0.001248988
H	 0.509822043	 1.030747278	 0.008108062
