22
0  1  0  1  0  1  11  11 -3.42304 -3.28719 -3.41863 -3.55447 -3.44769 -3.50898 -1.39892 -1.39914 -1.39809 -3.57838 -2.65609  2.33431 -0.67054 -2.58607
N	 -3.207693727	 0.915974141	 0.002593966
C	 -3.224912985	 -0.426631899	 -0.007557146
H	 -2.257581696	 -0.915974141	 -0.002593966
C	 -4.398997914	 -1.176189329	 -0.024088882
H	 -4.347668349	 -2.255653489	 -0.031598540
C	 -5.621608633	 -0.513442651	 -0.030747098
H	 -6.551834331	 -1.064536411	 -0.043673066
C	 -5.617236725	 0.877471294	 -0.020422745
H	 -6.539120067	 1.441524296	 -0.025041684
C	 -4.393402529	 1.540624930	 -0.003890914
H	 -4.359624141	 2.623260917	 0.004507054
N	 0.463992865	 -0.916029013	 0.230421095
C	 1.496783013	 -1.540794162	 0.812784997
H	 1.470038324	 -2.623443173	 0.791106943
C	 2.559628003	 -0.877741571	 1.419866098
H	 3.362846653	 -1.441876429	 1.872211299
C	 2.560014474	 0.513188522	 1.428475168
H	 3.367753673	 1.064213366	 1.890126537
C	 1.495009814	 1.176055831	 0.828103558
H	 1.447742675	 2.255542989	 0.807751695
C	 0.475702871	 0.426596791	 0.245102046
H	 -0.366641469	 0.916029013	 -0.230421095
