22
0  1  0  1  0  1  11  11 -3.67895 -3.50896 -3.66255 -3.83254 -3.69548 -3.77490 -1.28845 -1.28926 -1.28969 -3.85337 -3.28096  3.37683 -0.88621 -3.06303
N	 0.586023060	 0.915974141	 0.059400810
C	 0.603242319	 -0.426631899	 0.069551922
H	 -0.364088970	 -0.915974141	 0.064588742
C	 1.777327248	 -1.176189329	 0.086083658
H	 1.725997682	 -2.255653489	 0.093593316
C	 2.999937966	 -0.513442651	 0.092741874
H	 3.930163664	 -1.064536411	 0.105667842
C	 2.995566059	 0.877471294	 0.082417521
H	 3.917449400	 1.441524296	 0.087036460
C	 1.771731862	 1.540624930	 0.065885690
H	 1.737953474	 2.623260917	 0.057487722
N	 -2.634658074	 -0.916029013	 -1.470316614
C	 -3.667448222	 -1.540794162	 -2.052680516
H	 -3.640703533	 -2.623443173	 -2.031002462
C	 -4.730293211	 -0.877741571	 -2.659761616
H	 -5.533511862	 -1.441876429	 -3.112106818
C	 -4.730679683	 0.513188522	 -2.668370687
H	 -5.538418881	 1.064213366	 -3.130022056
C	 -3.665675022	 1.176055831	 -2.067999076
H	 -3.618407883	 2.255542989	 -2.047647214
C	 -2.646368080	 0.426596791	 -1.484997565
H	 -1.804023739	 0.916029013	 -1.009474424
