7
0  1  0  1  0  1   4   3 -2.36091 -2.26405 -2.23426 -2.33112 -2.25049 -2.29790 -1.92041 -1.91726 -1.91914 -2.27578 -2.41301  1.52088 -0.46901 -0.91464
C	 1.066509423	 0.002866326	 -0.012517694
H	 0.000000000	 0.000000000	 0.000000000
C	 2.279064443	 0.006315057	 -0.027716353
H	 3.340242628	 0.009157625	 -0.039985394
O	 -2.186079894	 0.000000000	 -1.171911561
H	 -2.686129560	 0.766009510	 -1.460615370
H	 -2.564585401	 -0.725021911	 -1.673093798
