7
0  1  0  1  0  1   4   3 -0.87457 -0.54296 -0.56018 -0.89179 -0.58565 -0.77344  0.81020  0.81013  0.78453 -0.58984 -7.53959 12.66004 -2.81685 -2.89344
C	 1.066509423	 0.002866326	 -0.012517694
H	 0.000000000	 0.000000000	 0.000000000
C	 2.279064443	 0.006315057	 -0.027716353
H	 3.340242628	 0.009157625	 -0.039985394
O	 -1.652946274	 0.000000000	 0.892884999
H	 -2.152995940	 0.766009510	 1.181588808
H	 -2.276235577	 -0.725021911	 0.970089265
