7
0  1  0  1  0  1   4   3 -2.79779 -2.67903 -2.65098 -2.76974 -2.67256 -2.73116 -2.28994 -2.28759 -2.29331 -2.70890 -3.08595  2.14278 -0.67244 -1.09329
C	 -1.006867219	 -0.030568213	 -0.024772854
H	 0.059003329	 -0.060939737	 -0.049365618
C	 -2.218743796	 0.003173470	 0.002599196
H	 -3.279277302	 0.033524906	 0.027200480
O	 2.400051494	 -0.150795756	 -0.119552638
H	 2.970407909	 -0.740565137	 0.377474288
H	 2.972047336	 0.200192266	 -0.804924792
