7
0  1  0  1  0  1   4   3 -0.44144 -0.08580 -0.12976 -0.48540 -0.16993 -0.36154  1.40684  1.40382  1.38195 -0.14830 -7.63219 13.87866 -3.25976 -3.13502
C	 -3.298721922	 0.002866326	 0.012517694
H	 -2.232212498	 -0.000000000	 -0.000000000
C	 -4.511276941	 0.006315057	 0.027716353
H	 -5.572455126	 0.009157625	 0.039985394
O	 -0.426573893	 0.000000000	 0.000000000
H	 0.456480528	 0.374679886	 0.000000000
H	 -0.288187444	 -0.917080645	 0.244783796
