7
0  1  0  1  0  1   4   3  3.91673  4.45146  4.34296  3.80823  4.30961  4.01085  6.54839  6.54225  6.52117  4.12303 -13.59546 28.43734 -6.03521 -4.68364
C	 1.066509423	 0.002866326	 -0.012517694
H	 0.000000000	 0.000000000	 0.000000000
C	 2.279064443	 0.006315057	 -0.027716353
H	 3.340242628	 0.009157625	 -0.039985394
O	 -1.457386596	 0.000000000	 -0.781274374
H	 -1.957436262	 0.766009510	 -1.069978183
H	 -1.835892103	 -0.725021911	 -1.282456611
