7
0  1  0  1  0  1   4   3 -2.20510 -2.12999 -2.10780 -2.18291 -2.12310 -2.15721 -1.87592 -1.87325 -1.87214 -2.14245 -2.03475  0.96455 -0.34120 -0.73105
C	 1.066509423	 0.002866326	 -0.012517694
H	 0.000000000	 0.000000000	 0.000000000
C	 2.279064443	 0.006315057	 -0.027716353
H	 3.340242628	 0.009157625	 -0.039985394
O	 -2.291214994	 1.227716874	 0.000000000
H	 -2.408259905	 2.179804379	 0.000000000
H	 -3.154623354	 0.889022732	 -0.244783796
