7
0  1  0  1  0  1   4   3 -2.52324 -2.40029 -2.37159 -2.49453 -2.39085 -2.45281 -1.94441 -1.94155 -1.94632 -2.41291 -2.91628  2.27346 -0.64191 -1.12818
C	 1.066509423	 0.002866326	 -0.012517694
H	 0.000000000	 0.000000000	 0.000000000
C	 2.279064443	 0.006315057	 -0.027716353
H	 3.340242628	 0.009157625	 -0.039985394
O	 -2.082922722	 1.116106249	 0.000000000
H	 -2.199967633	 2.068193754	 0.000000000
H	 -2.946331082	 0.777412107	 -0.244783796
