7
0  1  0  1  0  1   4   3 -2.52229 -2.39937 -2.37150 -2.49441 -2.39094 -2.45280 -1.93864 -1.93586 -1.94070 -2.41250 -2.91476  2.27794 -0.64526 -1.13042
C	 1.066509423	 0.002866326	 -0.012517694
H	 0.000000000	 0.000000000	 0.000000000
C	 2.279064443	 0.006315057	 -0.027716353
H	 3.340242628	 0.009157625	 -0.039985394
O	 -2.080164698	 -1.116106249	 0.000000000
H	 -2.963219119	 -0.741426363	 0.000000000
H	 -2.218551147	 -2.033186894	 -0.244783796
