7
0  1  0  1  0  1   4   3 -2.61318 -2.51998 -2.49360 -2.58680 -2.51246 -2.55641 -2.22281 -2.22013 -2.22245 -2.55342 -2.60396  1.43212 -0.49299 -0.88858
C	 -3.298721922	 0.002866326	 0.012517694
H	 -2.232212498	 -0.000000000	 -0.000000000
C	 -4.511276941	 0.006315057	 0.027716353
H	 -5.572455126	 0.009157625	 0.039985394
O	 0.225861860	 0.000000000	 0.000000000
H	 0.725911526	 0.766009510	 -0.288703809
H	 0.849151163	 -0.725021911	 -0.077204266
