7
0  1  0  1  0  1   4   3 -2.59175 -2.34854 -2.33576 -2.57897 -2.36466 -2.49794 -1.48939 -1.48939 -1.51162 -2.37359 -5.64382  7.19881 -1.84355 -2.08503
C	 -1.006867219	 -0.030568213	 -0.024772854
H	 0.059003329	 -0.060939737	 -0.049365618
C	 -2.218743796	 0.003173470	 0.002599196
H	 -3.279277302	 0.033524906	 0.027200480
O	 2.065616042	 -0.137959182	 -0.109525921
H	 2.635972457	 -0.727728563	 0.387501005
H	 2.637611884	 0.213028840	 -0.794898075
