7
0  1  0  1  0  1   4   3  4.79380  5.34923  5.17583  4.62040  5.13115  4.82973  7.69459  7.68699  7.67241  4.96240 -13.65278 30.81253 -7.14614 -5.05120
C	 -3.298721922	 0.002866326	 0.012517694
H	 -2.232212498	 -0.000000000	 -0.000000000
C	 -4.511276941	 0.006315057	 0.027716353
H	 -5.572455126	 0.009157625	 0.039985394
O	 -0.649112820	 0.000000000	 0.000000000
H	 -0.532067909	 0.952087505	 0.000000000
H	 0.214295540	 -0.338694142	 0.244783796
