7
0  1  0  1  0  1   4   3 -2.35125 -2.25470 -2.22915 -2.32570 -2.24605 -2.29305 -1.88308 -1.88026 -1.88250 -2.27060 -2.40242  1.54247 -0.48311 -0.92754
C	 1.066509423	 0.002866326	 -0.012517694
H	 0.000000000	 0.000000000	 0.000000000
C	 2.279064443	 0.006315057	 -0.027716353
H	 3.340242628	 0.009157625	 -0.039985394
O	 -2.169491985	 0.000000000	 1.171911561
H	 -2.669541651	 0.766009510	 1.460615370
H	 -2.792781288	 -0.725021911	 1.249115827
