7
0  1  0  1  0  1   4   3 -2.58191 -2.33889 -2.32444 -2.56747 -2.35354 -2.48669 -1.47189 -1.47201 -1.49446 -2.37021 -5.65843  7.21620 -1.84348 -2.08450
C	 -3.298721922	 0.002866326	 0.012517694
H	 -2.232212498	 -0.000000000	 -0.000000000
C	 -4.511276941	 0.006315057	 0.027716353
H	 -5.572455126	 0.009157625	 0.039985394
O	 -0.221060750	 0.000000000	 0.000000000
H	 0.278988916	 0.766009510	 -0.288703809
H	 0.402228553	 -0.725021911	 -0.077204266
