7
0  1  0  1  0  1   4   3 -1.04559 -0.71674 -0.73087 -1.05973 -0.75629 -0.94187  0.58721  0.58729  0.56321 -0.75203 -7.48213 12.30278 -2.72924 -2.84344
C	 1.066509423	 0.002866326	 -0.012517694
H	 0.000000000	 0.000000000	 0.000000000
C	 2.279064443	 0.006315057	 -0.027716353
H	 3.340242628	 0.009157625	 -0.039985394
O	 -1.664131758	 -0.892884999	 0.000000000
H	 -2.547186179	 -0.518205113	 0.000000000
H	 -1.802518207	 -1.809965644	 -0.244783796
