7
0  1  0  1  0  1   4   3 -0.72950 -0.34872 -0.39047 -0.77125 -0.42470 -0.63605  1.04796  1.04350  1.01742 -0.46042 -9.26692 15.90882 -3.81945 -3.28288
C	 -3.298721922	 0.002866326	 0.012517694
H	 -2.232212498	 -0.000000000	 -0.000000000
C	 -4.511276941	 0.006315057	 0.027716353
H	 -5.572455126	 0.009157625	 0.039985394
O	 -0.444522056	 0.000000000	 0.000000000
H	 0.055527610	 0.766009510	 -0.288703809
H	 0.178767247	 -0.725021911	 -0.077204266
