7
0  1  0  1  0  1   4   3  4.84826  5.43961  5.26072  4.66937  5.21965  4.89348  7.62395  7.61236  7.59333  4.90418 -16.13539 34.52264 -8.20370 -5.27937
C	 -3.298721922	 0.002866326	 0.012517694
H	 -2.232212498	 -0.000000000	 -0.000000000
C	 -4.511276941	 0.006315057	 0.027716353
H	 -5.572455126	 0.009157625	 0.039985394
O	 -0.667983361	 0.000000000	 0.000000000
H	 -0.167933695	 0.766009510	 -0.288703809
H	 -0.044694058	 -0.725021911	 -0.077204266
