7
0  1  0  1  0  1   4   3 -2.42043 -2.21795 -2.19341 -2.39589 -2.21590 -2.32629 -1.43725 -1.43509 -1.45010 -2.22625 -4.48683  5.31892 -1.28452 -1.77382
C	 1.066509423	 0.002866326	 -0.012517694
H	 0.000000000	 0.000000000	 0.000000000
C	 2.279064443	 0.006315057	 -0.027716353
H	 3.340242628	 0.009157625	 -0.039985394
O	 -1.874630450	 1.004495624	 0.000000000
H	 -1.991675361	 1.956583129	 0.000000000
H	 -2.738038810	 0.665801482	 -0.244783796
