7
0  1  0  1  0  1   4   3 -2.15259 -1.92793 -1.91385 -2.13851 -1.94781 -2.06574 -0.99252 -0.99260 -1.01082 -1.95428 -4.62193  6.18700 -1.54066 -1.97870
C	 -3.298721922	 0.002866326	 0.012517694
H	 -2.232212498	 -0.000000000	 -0.000000000
C	 -4.511276941	 0.006315057	 0.027716353
H	 -5.572455126	 0.009157625	 0.039985394
O	 -0.196798626	 0.000000000	 0.000000000
H	 -0.079753715	 0.952087505	 0.000000000
H	 0.666609734	 -0.338694142	 0.244783796
