7
0  1  0  1  0  1   4   3 -2.35902 -2.25101 -2.22607 -2.33408 -2.24923 -2.29980 -1.81678 -1.81484 -1.81843 -2.27732 -2.47697  1.77703 -0.54694 -1.03045
C	 -3.298721922	 0.002866326	 0.012517694
H	 -2.232212498	 -0.000000000	 -0.000000000
C	 -4.511276941	 0.006315057	 0.027716353
H	 -5.572455126	 0.009157625	 0.039985394
O	 0.137688171	 0.000000000	 0.000000000
H	 1.020742592	 0.374679886	 0.000000000
H	 0.276074620	 -0.917080645	 0.244783796
