7
0  1  0  1  0  1   4   3 -2.78379 -2.66549 -2.63665 -2.75495 -2.65830 -2.71664 -2.26940 -2.26699 -2.27283 -2.69908 -3.08639  2.15231 -0.67199 -1.09301
C	 -3.298721922	 0.002866326	 0.012517694
H	 -2.232212498	 -0.000000000	 -0.000000000
C	 -4.511276941	 0.006315057	 0.027716353
H	 -5.572455126	 0.009157625	 0.039985394
O	 0.114131208	 0.000000000	 0.000000000
H	 0.614180874	 0.766009510	 -0.288703809
H	 0.737420511	 -0.725021911	 -0.077204266
