7
0  1  0  1  0  1   4   3 -2.18705 -2.11123 -2.08585 -2.16167 -2.10013 -2.13544 -1.85670 -1.85366 -1.85303 -2.12195 -2.03021  0.99114 -0.34486 -0.73802
C	 1.066509423	 0.002866326	 -0.012517694
H	 0.000000000	 0.000000000	 0.000000000
C	 2.279064443	 0.006315057	 -0.027716353
H	 3.340242628	 0.009157625	 -0.039985394
O	 -2.290178936	 0.000000000	 -1.227716874
H	 -2.790228602	 0.766009510	 -1.516420683
H	 -2.668684443	 -0.725021911	 -1.728899111
