7
0  1  0  1  0  1   4   3 -2.55656 -2.46728 -2.43501 -2.52429 -2.45285 -2.49535 -2.13139 -2.12719 -2.13003 -2.52172 -2.64684  1.50876 -0.49445 -0.88919
C	 -3.298721922	 0.002866326	 0.012517694
H	 -2.232212498	 -0.000000000	 -0.000000000
C	 -4.511276941	 0.006315057	 0.027716353
H	 -5.572455126	 0.009157625	 0.039985394
O	 0.248046346	 0.000000000	 0.000000000
H	 0.748096012	 0.766009510	 0.288703809
H	 0.626551853	 -0.725021911	 0.501182237
