7
0  1  0  1  0  1   4   3 -2.84595 -2.65415 -2.62909 -2.82089 -2.65589 -2.75826 -1.97938 -1.97829 -1.99482 -2.68255 -4.54325  4.83428 -1.30062 -1.67296
C	 -3.298721922	 0.002866326	 0.012517694
H	 -2.232212498	 -0.000000000	 -0.000000000
C	 -4.511276941	 0.006315057	 0.027716353
H	 -5.572455126	 0.009157625	 0.039985394
O	 -0.109330098	 0.000000000	 0.000000000
H	 0.390719568	 0.766009510	 -0.288703809
H	 0.513959205	 -0.725021911	 -0.077204266
