7
0  1  0  1  0  1   4   3 -2.34422 -2.23685 -2.21035 -2.31772 -2.23311 -2.28367 -1.79638 -1.79412 -1.79801 -2.26557 -2.48079  1.79057 -0.54620 -1.02915
C	 -3.298721922	 0.002866326	 0.012517694
H	 -2.232212498	 -0.000000000	 -0.000000000
C	 -4.511276941	 0.006315057	 0.027716353
H	 -5.572455126	 0.009157625	 0.039985394
O	 0.142437019	 0.000000000	 0.000000000
H	 0.259481930	 0.952087505	 0.000000000
H	 1.005845379	 -0.338694142	 0.244783796
