7
0  1  0  1  0  1   4   3  4.81752  5.37259  5.19142  4.63635  5.14701  4.84574  7.71563  7.70846  7.69415  4.99728 -13.54560 30.75287 -7.15331 -5.05668
C	 -3.298721922	 0.002866326	 0.012517694
H	 -2.232212498	 -0.000000000	 -0.000000000
C	 -4.511276941	 0.006315057	 0.027716353
H	 -5.572455126	 0.009157625	 0.039985394
O	 -0.652278719	 0.000000000	 0.000000000
H	 0.230775702	 0.374679886	 0.000000000
H	 -0.513892270	 -0.917080645	 0.244783796
