7
0  1  0  1  0  1   4   3 -0.76872 -0.38677 -0.40285 -0.78481 -0.43944 -0.65034  1.04024  1.03307  1.00645 -0.55635 -9.67644 16.25488 -3.84845 -3.28634
C	 -3.298721922	 0.002866326	 0.012517694
H	 -2.232212498	 -0.000000000	 -0.000000000
C	 -4.511276941	 0.006315057	 0.027716353
H	 -5.572455126	 0.009157625	 0.039985394
O	 -0.428387884	 0.000000000	 0.000000000
H	 0.071661782	 0.766009510	 0.288703809
H	 -0.049882377	 -0.725021911	 0.501182237
