7
0  1  0  1  0  1   4   3  3.58201  4.10993  3.98852  3.46060  3.95745  3.66140  6.20692  6.20226  6.18138  3.81382 -13.45060 27.90947 -6.00231 -4.64274
C	 1.066509423	 0.002866326	 -0.012517694
H	 0.000000000	 0.000000000	 0.000000000
C	 2.279064443	 0.006315057	 -0.027716353
H	 3.340242628	 0.009157625	 -0.039985394
O	 -1.458045905	 0.781274374	 0.000000000
H	 -1.575090816	 1.733361879	 0.000000000
H	 -2.321454265	 0.442580232	 -0.244783796
