7
0  1  0  1  0  1   4   3 -2.20357 -2.12845 -2.10680 -2.18192 -2.12230 -2.15632 -1.87071 -1.86813 -1.86707 -2.14173 -2.03277  0.96665 -0.34293 -0.73268
C	 1.066509423	 0.002866326	 -0.012517694
H	 0.000000000	 0.000000000	 0.000000000
C	 2.279064443	 0.006315057	 -0.027716353
H	 3.340242628	 0.009157625	 -0.039985394
O	 -2.288181168	 -1.227716874	 0.000000000
H	 -3.171235589	 -0.853036988	 0.000000000
H	 -2.426567617	 -2.144797519	 -0.244783796
