7
0  1  0  1  0  1   4   3 -2.19498 -2.11092 -2.08692 -2.17098 -2.10602 -2.14403 -1.77425 -1.77156 -1.77265 -2.13636 -2.08480  1.18016 -0.39720 -0.83452
C	 -3.298721922	 0.002866326	 0.012517694
H	 -2.232212498	 -0.000000000	 -0.000000000
C	 -4.511276941	 0.006315057	 0.027716353
H	 -5.572455126	 0.009157625	 0.039985394
O	 0.255515568	 0.000000000	 0.000000000
H	 0.372560479	 0.952087505	 0.000000000
H	 1.118923928	 -0.338694142	 0.244783796
