7
0  1  0  1  0  1   4   3 -2.80701 -2.61698 -2.57921 -2.76924 -2.60604 -2.70775 -1.90303 -1.90198 -1.91943 -2.68519 -4.70448  5.00499 -1.31188 -1.67382
C	 -3.298721922	 0.002866326	 0.012517694
H	 -2.232212498	 -0.000000000	 -0.000000000
C	 -4.511276941	 0.006315057	 0.027716353
H	 -5.572455126	 0.009157625	 0.039985394
O	 -0.090170769	 0.000000000	 0.000000000
H	 0.409878897	 0.766009510	 0.288703809
H	 0.288334738	 -0.725021911	 0.501182237
