7
0  1  0  1  0  1   4   3 -2.33233 -2.12841 -2.10631 -2.31023 -2.12813 -2.24039 -1.30357 -1.30133 -1.31787 -2.13958 -4.49825  5.50385 -1.33530 -1.80988
C	 1.066509423	 0.002866326	 -0.012517694
H	 0.000000000	 0.000000000	 0.000000000
C	 2.279064443	 0.006315057	 -0.027716353
H	 3.340242628	 0.009157625	 -0.039985394
O	 -1.859564559	 0.000000000	 1.004495624
H	 -2.359614225	 0.766009510	 1.293199433
H	 -2.482853862	 -0.725021911	 1.081699890
