7
0  1  0  1  0  1   4   3 -2.55809 -2.31574 -2.28510 -2.52745 -2.31476 -2.44764 -1.41131 -1.41218 -1.43568 -2.39338 -5.88316  7.43492 -1.85967 -2.08547
C	 -3.298721922	 0.002866326	 0.012517694
H	 -2.232212498	 -0.000000000	 -0.000000000
C	 -4.511276941	 0.006315057	 0.027716353
H	 -5.572455126	 0.009157625	 0.039985394
O	 -0.202909808	 0.000000000	 0.000000000
H	 0.297139858	 0.766009510	 0.288703809
H	 0.175595699	 -0.725021911	 0.501182237
