7
0  1  0  1  0  1   4   3 -2.50290 -2.34315 -2.30894 -2.46869 -2.32914 -2.41407 -1.74273 -1.74015 -1.75022 -2.35475 -3.58658  3.56506 -0.90948 -1.42376
C	 1.066509423	 0.002866326	 -0.012517694
H	 0.000000000	 0.000000000	 0.000000000
C	 2.279064443	 0.006315057	 -0.027716353
H	 3.340242628	 0.009157625	 -0.039985394
O	 -1.977881808	 0.000000000	 -1.060300937
H	 -2.477931474	 0.766009510	 -1.349004746
H	 -2.356387315	 -0.725021911	 -1.561483174
