7
0  1  0  1  0  1   4   3 -2.20987 -2.12515 -2.10236 -2.18708 -2.12182 -2.15989 -1.79464 -1.79226 -1.79307 -2.14818 -2.08444  1.16986 -0.39797 -0.83562
C	 -3.298721922	 0.002866326	 0.012517694
H	 -2.232212498	 -0.000000000	 -0.000000000
C	 -4.511276941	 0.006315057	 0.027716353
H	 -5.572455126	 0.009157625	 0.039985394
O	 0.250540584	 0.000000000	 0.000000000
H	 1.133595005	 0.374679886	 0.000000000
H	 0.388927033	 -0.917080645	 0.244783796
