7
0  1  0  1  0  1   4   3  3.57794  4.10521  3.98023  3.45296  3.94884  3.65341  6.21269  6.20766  6.18692  3.81056 -13.44559 27.93482 -6.03166 -4.64702
C	 1.066509423	 0.002866326	 -0.012517694
H	 0.000000000	 0.000000000	 0.000000000
C	 2.279064443	 0.006315057	 -0.027716353
H	 3.340242628	 0.009157625	 -0.039985394
O	 -1.456115289	 -0.781274374	 0.000000000
H	 -2.339169710	 -0.406594488	 0.000000000
H	 -1.594501738	 -1.698355019	 -0.244783796
