7
0  1  0  1  0  1   4   3 -2.44386 -2.30577 -2.28081 -2.41890 -2.30778 -2.37519 -1.74143 -1.74006 -1.74757 -2.33313 -2.99034  2.69542 -0.76244 -1.27576
C	 -3.298721922	 0.002866326	 0.012517694
H	 -2.232212498	 -0.000000000	 -0.000000000
C	 -4.511276941	 0.006315057	 0.027716353
H	 -5.572455126	 0.009157625	 0.039985394
O	 0.024835758	 0.000000000	 0.000000000
H	 0.907890179	 0.374679886	 0.000000000
H	 0.163222207	 -0.917080645	 0.244783796
