7
0  1  0  1  0  1   4   3 -2.83367 -2.68571 -2.64680 -2.79476 -2.67076 -2.74726 -2.12579 -2.12335 -2.13475 -2.74970 -3.82495  3.36128 -0.93601 -1.35002
C	 -3.298721922	 0.002866326	 0.012517694
H	 -2.232212498	 -0.000000000	 -0.000000000
C	 -4.511276941	 0.006315057	 0.027716353
H	 -5.572455126	 0.009157625	 0.039985394
O	 0.022568269	 0.000000000	 0.000000000
H	 0.522617935	 0.766009510	 0.288703809
H	 0.401073776	 -0.725021911	 0.501182237
