7
0  1  0  1  0  1   4   3 -2.88183 -2.73117 -2.70217 -2.85283 -2.72649 -2.80401 -2.21111 -2.20921 -2.21984 -2.76270 -3.71362  3.22931 -0.92874 -1.34964
C	 -3.298721922	 0.002866326	 0.012517694
H	 -2.232212498	 -0.000000000	 -0.000000000
C	 -4.511276941	 0.006315057	 0.027716353
H	 -5.572455126	 0.009157625	 0.039985394
O	 0.002400555	 0.000000000	 0.000000000
H	 0.502450221	 0.766009510	 -0.288703809
H	 0.625689858	 -0.725021911	 -0.077204266
