12
0  1  0  1  0  1   4   8 -4.39501 -3.86618 -4.07246 -4.60130 -4.14313 -4.40838 -1.00102 -1.00825 -1.00913 -3.63502 -10.15779 15.92435 -4.50581 -4.89578
C	 -0.114382667	 -0.595668054	 -0.000005252
H	 -0.363714818	 -1.630117102	 -0.000060326
C	 0.114382667	 0.595668054	 0.000005252
H	 0.334267817	 1.634805691	 0.000000000
C	 -2.978105052	 -1.316392651	 1.721282333
O	 -2.289287914	 -2.230610381	 1.325239921
O	 -2.660272930	 -0.017841382	 1.539234596
H	 -1.816340522	 -0.000000000	 1.054064882
C	 -4.271902605	 -1.459535076	 2.464498189
H	 -4.502205474	 -2.510156806	 2.593099589
H	 -4.192061759	 -0.970417426	 3.432452368
H	 -5.066655205	 -0.964565889	 1.911474648
