12
0  1  0  1  0  1   4   8 -4.39392 -3.86489 -4.07132 -4.60035 -4.14201 -4.40736 -0.99872 -1.00593 -1.00681 -3.63390 -10.16150 15.93291 -4.50809 -4.89724
C	 -0.114382667	 -0.595668054	 -0.000005252
H	 -0.363714818	 -1.630117102	 -0.000060326
C	 0.114382667	 0.595668054	 0.000005252
H	 0.334267817	 1.634805691	 0.000000000
C	 -2.974798971	 -1.316392651	 -1.726573754
O	 -2.287407612	 -2.230610381	 -1.328061820
O	 -2.658224945	 -0.017841382	 -1.542346930
H	 -1.816089444	 -0.000000000	 -1.054064882
C	 -4.265341559	 -1.459535076	 -2.475427374
H	 -4.491865073	 -2.510156806	 -2.610574809
H	 -5.063694045	 -0.970417426	 -1.922306084
H	 -4.183785424	 -0.964565889	 -3.440215086
