12
0  1  0  1  0  1   4   8 -4.82583 -4.40044 -4.53686 -4.96225 -4.60793 -4.81269 -2.08613 -2.09660 -2.09640 -4.14624 -8.06188 11.22467 -3.29465 -4.01438
C	 -0.114382667	 -0.595668054	 -0.000005252
H	 -0.363714818	 -1.630117102	 -0.000060326
C	 0.114382667	 0.595668054	 0.000005252
H	 0.334267817	 1.634805691	 0.000000000
C	 -3.075692829	 -1.316392651	 -1.785132914
O	 -2.388301470	 -2.230610381	 -1.386620980
O	 -2.759118803	 -0.017841382	 -1.600906090
H	 -1.916983302	 -0.000000000	 -1.112624042
C	 -4.366235417	 -1.459535076	 -2.533986534
H	 -4.592758931	 -2.510156806	 -2.669133969
H	 -5.164587903	 -0.970417426	 -1.980865244
H	 -4.284679282	 -0.964565889	 -3.498774246
