12
0  1  0  1  0  1   4   8 -0.99132 -0.19181 -0.60777 -1.40728 -0.68368 -1.10857  4.29145  4.28517  4.26962 -0.12189 -15.59898 29.52261 -6.95051 -7.09501
C	 -2.227983737	 -0.595668054	 0.000005252
H	 -1.978651587	 -1.630117102	 0.000060326
C	 -2.456749072	 0.595668054	 -0.000005252
H	 -2.676634222	 1.634805691	 0.000000000
C	 0.768371148	 -1.316392651	 -0.667217451
O	 0.079554012	 -2.230610381	 -0.271175039
O	 0.450539027	 -0.017841382	 -0.485169714
H	 -0.393393382	 0.000000000	 0.000000000
C	 2.062168702	 -1.459535076	 -1.410433307
H	 2.292471571	 -2.510156806	 -1.539034707
H	 1.982327856	 -0.970417426	 -2.378387486
H	 2.856921302	 -0.964565889	 -0.857409766
