12
0  1  0  1  0  1   4   8 -4.42386 -3.88709 -4.08673 -4.62350 -4.15836 -4.42855 -1.01270 -1.02026 -1.02328 -3.67344 -10.33386 16.17684 -4.56631 -4.95010
C	 -0.610562566	 0.227503096	 -0.170602070
H	 0.107385058	 0.861436027	 -0.634209239
C	 -1.386275728	 -0.525325504	 0.379973527
H	 -2.080703238	 -1.174067393	 0.854379369
C	 2.656420127	 -0.562305271	 0.407779388
O	 2.402241068	 0.393796976	 -0.291058360
O	 1.708515508	 -1.336645498	 0.975465993
H	 0.847516120	 -0.969346510	 0.707694851
C	 4.032055279	 -1.043755100	 0.757930296
H	 4.770441093	 -0.406205013	 0.287079972
H	 4.158265796	 -1.031900375	 1.837965620
H	 4.154332423	 -2.071599647	 0.424695966
