12
0  1  0  1  0  1   4   8 -4.21948 -3.96295 -4.01049 -4.26702 -4.07213 -4.18564 -2.49041 -2.50310 -2.50510 -3.81548 -4.62488  4.68459 -1.33636 -2.53884
C	 -2.227983737	 -0.595668054	 0.000005252
H	 -1.978651587	 -1.630117102	 0.000060326
C	 -2.456749072	 0.595668054	 -0.000005252
H	 -2.676634222	 1.634805691	 0.000000000
C	 1.377425218	 -1.316392651	 -0.667217451
O	 0.688608082	 -2.230610381	 -0.271175039
O	 1.059593097	 -0.017841382	 -0.485169714
H	 0.215660688	 0.000000000	 0.000000000
C	 2.671222772	 -1.459535076	 -1.410433307
H	 2.901525641	 -2.510156806	 -1.539034707
H	 2.591381926	 -0.970417426	 -2.378387486
H	 3.465975372	 -0.964565889	 -0.857409766
