12
0  1  0  1  0  1   4   8  7.42148  8.76152  7.89392  6.55389  7.81857  7.05685 15.42248 15.42305 15.35057  7.40290 -27.88693 62.74076 -16.23624 -11.21469
C	 -0.114382667	 -0.595668054	 -0.000005252
H	 -0.363714818	 -1.630117102	 -0.000060326
C	 0.114382667	 0.595668054	 0.000005252
H	 0.334267817	 1.634805691	 0.000000000
C	 -2.574473825	 -1.316392651	 1.487045692
O	 -1.885656687	 -2.230610381	 1.091003280
O	 -2.256641703	 -0.017841382	 1.304997955
H	 -1.412709295	 -0.000000000	 0.819828241
C	 -3.868271378	 -1.459535076	 2.230261548
H	 -4.098574247	 -2.510156806	 2.358862948
H	 -3.788430532	 -0.970417426	 3.198215727
H	 -4.663023978	 -0.964565889	 1.677238007
