12
0  1  0  1  0  1   4   8 -3.99684 -3.67142 -3.67790 -4.00332 -3.74234 -3.90185 -1.87943 -1.88959 -1.91004 -3.70656 -6.12482  7.92039 -2.27130 -3.23082
C	 -0.114382667	 -0.595668054	 -0.000005252
H	 -0.363714818	 -1.630117102	 -0.000060326
C	 0.114382667	 0.595668054	 0.000005252
H	 0.334267817	 1.634805691	 0.000000000
C	 -2.970769683	 -2.922516681	 -0.003055003
O	 -1.825556570	 -3.316975286	 -0.001629224
O	 -3.302842243	 -1.614801013	 -0.001796907
H	 -2.468728980	 -1.112624042	 -0.000000000
C	 -4.191368541	 -3.792516395	 -0.006309968
H	 -3.894470867	 -4.834255920	 -0.010089323
H	 -4.795183186	 -3.576344529	 0.871883364
H	 -4.795451367	 -3.569742590	 -0.882618703
