12
0  1  0  1  0  1   4   8 -2.14650 -1.83665 -1.80750 -2.11735 -1.84672 -2.00824 -0.40599 -0.40672 -0.41872 -1.99444 -6.27782  9.36062 -1.84117 -3.23606
C	 -2.227983737	 -0.595668054	 0.000005252
H	 -1.978651587	 -1.630117102	 0.000060326
C	 -2.456749072	 0.595668054	 -0.000005252
H	 -2.676634222	 1.634805691	 0.000000000
C	 1.254503500	 -1.809892638	 0.003055003
O	 0.109290388	 -2.204351244	 0.001629224
O	 1.586576061	 -0.502176971	 0.001796907
H	 0.752462797	 0.000000000	 0.000000000
C	 2.475102359	 -2.679892353	 0.006309968
H	 2.178204686	 -3.721631878	 0.010089323
H	 3.078917004	 -2.463720487	 -0.871883364
H	 3.079185185	 -2.457118548	 0.882618703
