12
0  1  0  1  0  1   4   8 -2.58293 -2.43602 -2.49555 -2.64247 -2.54707 -2.60359 -1.34361 -1.35816 -1.36141 -2.35938 -1.96369  1.99847 -0.83321 -1.56094
C	 -0.114382667	 -0.595668054	 -0.000005252
H	 -0.363714818	 -1.630117102	 -0.000060326
C	 0.114382667	 0.595668054	 0.000005252
H	 0.334267817	 1.634805691	 0.000000000
C	 -4.218852174	 0.818135206	 -0.003055003
O	 -3.987856791	 -0.370877745	 -0.001629224
O	 -3.252373465	 1.759576313	 -0.001796907
H	 -2.400418820	 1.288301522	 -0.000000000
C	 -5.582593457	 1.440204968	 -0.006309968
H	 -6.336317513	 0.662214278	 -0.010089323
H	 -5.697290452	 2.071209723	 0.871883364
H	 -5.691707096	 2.074742944	 -0.882618703
