12
0  1  0  1  0  1   4   8 -2.40448 -2.30109 -2.26980 -2.37320 -2.28160 -2.33208 -1.68180 -1.67464 -1.66877 -2.33841 -2.31687  1.88739 -0.49687 -1.41206
C	 -2.227983737	 -0.595668054	 0.000005252
H	 -1.978651587	 -1.630117102	 0.000060326
C	 -2.456749072	 0.595668054	 -0.000005252
H	 -2.676634222	 1.634805691	 0.000000000
C	 1.770308367	 -1.809892638	 0.003055003
O	 0.625095255	 -2.204351244	 0.001629224
O	 2.102380928	 -0.502176971	 0.001796907
H	 1.268267664	 0.000000000	 0.000000000
C	 2.990907226	 -2.679892353	 0.006309968
H	 2.694009553	 -3.721631878	 0.010089323
H	 3.594721871	 -2.463720487	 -0.871883364
H	 3.594990052	 -2.457118548	 0.882618703
