12
0  1  0  1  0  1   4   8  7.64535  9.00577  8.13369  6.77327  8.05710  7.28377 15.74546 15.74511 15.67134  7.59223 -28.51516 64.21205 -16.69300 -11.41166
C	 -0.610562566	 0.227503096	 -0.170602070
H	 0.107385058	 0.861436027	 -0.634209239
C	 -1.386275728	 -0.525325504	 0.379973527
H	 -2.080703238	 -1.174067393	 0.854379369
C	 2.246212289	 -0.379986313	 0.273777361
O	 1.992033231	 0.576115934	 -0.425060387
O	 1.298307670	 -1.154326541	 0.841463966
H	 0.437308282	 -0.787027553	 0.573692824
C	 3.621847442	 -0.861436143	 0.623928269
H	 4.360233256	 -0.223886055	 0.153077945
H	 3.748057959	 -0.849581417	 1.703963593
H	 3.744124586	 -1.889280690	 0.290693939
