12
0  1  0  1  0  1   4   8 -1.66157 -1.11543 -1.53453 -2.08067 -1.59720 -1.87545  2.61502  2.61178  2.61477 -0.96736 -8.85591 18.97942 -5.81508 -5.27579
C	 -0.114382667	 -0.595668054	 -0.000005252
H	 -0.363714818	 -1.630117102	 -0.000060326
C	 0.114382667	 0.595668054	 0.000005252
H	 0.334267817	 1.634805691	 0.000000000
C	 -3.564192496	 0.466780246	 -0.003055003
O	 -3.333197113	 -0.722232705	 -0.001629224
O	 -2.597713787	 1.408221353	 -0.001796907
H	 -1.745759142	 0.936946562	 -0.000000000
C	 -4.927933779	 1.088850008	 -0.006309968
H	 -5.681657835	 0.310859318	 -0.010089323
H	 -5.042630774	 1.719854763	 0.871883364
H	 -5.037047418	 1.723387984	 -0.882618703
