12
0  1  0  1  0  1   4   8 -4.39128 -4.16128 -4.19286 -4.42286 -4.25792 -4.35314 -2.95411 -2.97062 -2.97029 -4.02376 -4.32023  3.87052 -1.32173 -2.25232
C	 -0.114382667	 -0.595668054	 -0.000005252
H	 -0.363714818	 -1.630117102	 -0.000060326
C	 0.114382667	 0.595668054	 0.000005252
H	 0.334267817	 1.634805691	 0.000000000
C	 -3.378374403	 -1.316392651	 -1.960810394
O	 -2.690983044	 -2.230610381	 -1.562298460
O	 -3.061800377	 -0.017841382	 -1.776583570
H	 -2.219664876	 -0.000000000	 -1.288301522
C	 -4.668916991	 -1.459535076	 -2.709664014
H	 -4.895440505	 -2.510156806	 -2.844811449
H	 -5.467269477	 -0.970417426	 -2.156542724
H	 -4.587360856	 -0.964565889	 -3.674451726
