12
0  1  0  1  0  1   4   8 -3.92131 -3.71432 -3.74201 -3.94900 -3.79819 -3.88615 -2.54034 -2.55257 -2.55440 -3.61096 -3.76363  3.20905 -0.97330 -2.08308
C	 -2.227983737	 -0.595668054	 0.000005252
H	 -1.978651587	 -1.630117102	 0.000060326
C	 -2.456749072	 0.595668054	 -0.000005252
H	 -2.676634222	 1.634805691	 0.000000000
C	 1.497793622	 -1.316392651	 0.672508871
O	 0.810402265	 -2.230610381	 0.273996938
O	 1.181219597	 -0.017841382	 0.488282048
H	 0.339084095	 0.000000000	 0.000000000
C	 2.788336211	 -1.459535076	 1.421362492
H	 3.014859725	 -2.510156806	 1.556509927
H	 3.586688697	 -0.970417426	 0.868241201
H	 2.706780076	 -0.964565889	 2.386150204
