12
0  1  0  1  0  1   4   8 -4.86909 -4.43828 -4.56813 -4.99895 -4.63994 -4.84798 -2.12181 -2.13245 -2.13362 -4.19868 -8.19280 11.37150 -3.32727 -4.05011
C	 -0.610562566	 0.227503096	 -0.170602070
H	 0.107385058	 0.861436027	 -0.634209239
C	 -1.386275728	 -0.525325504	 0.379973527
H	 -2.080703238	 -1.174067393	 0.854379369
C	 2.758972086	 -0.607885010	 0.441279895
O	 2.504793028	 0.348217237	 -0.257557853
O	 1.811067467	 -1.382225237	 1.008966500
H	 0.950068079	 -1.014926250	 0.741195358
C	 4.134607239	 -1.089334840	 0.791430803
H	 4.872993052	 -0.451784752	 0.320580479
H	 4.260817755	 -1.077480114	 1.871466127
H	 4.256884382	 -2.117179386	 0.458196473
