12
0  1  0  1  0  1   4   8 -4.21305 -3.95694 -4.00446 -4.26058 -4.06601 -4.17935 -2.48471 -2.49734 -2.49937 -3.80990 -4.61602  4.67350 -1.33084 -2.53654
C	 -2.227983737	 -0.595668054	 0.000005252
H	 -1.978651587	 -1.630117102	 0.000060326
C	 -2.456749072	 0.595668054	 -0.000005252
H	 -2.676634222	 1.634805691	 0.000000000
C	 1.375909509	 -1.316392651	 0.672508871
O	 0.688518152	 -2.230610381	 0.273996938
O	 1.059335484	 -0.017841382	 0.488282048
H	 0.217199982	 0.000000000	 0.000000000
C	 2.666452098	 -1.459535076	 1.421362492
H	 2.892975612	 -2.510156806	 1.556509927
H	 3.464804584	 -0.970417426	 0.868241201
H	 2.584895963	 -0.964565889	 2.386150204
