12
0  1  0  1  0  1   4   8 -1.17306 -0.45311 -0.69636 -1.41631 -0.78065 -1.16351  3.39530  3.37662  3.34021 -0.78178 -14.40077 28.06721 -7.66581 -6.78241
C	 -0.114382667	 -0.595668054	 -0.000005252
H	 -0.363714818	 -1.630117102	 -0.000060326
C	 0.114382667	 0.595668054	 0.000005252
H	 0.334267817	 1.634805691	 0.000000000
C	 -2.580970370	 -2.746839201	 -0.003055003
O	 -1.435757257	 -3.141297806	 -0.001629224
O	 -2.913042930	 -1.439123533	 -0.001796907
H	 -2.078929667	 -0.936946562	 -0.000000000
C	 -3.801569228	 -3.616838915	 -0.006309968
H	 -3.504671554	 -4.658578440	 -0.010089323
H	 -4.405383873	 -3.400667049	 0.871883364
H	 -4.405652054	 -3.394065110	 -0.882618703
