12
0  1  0  1  0  1   4   8 -4.39346 -4.07511 -4.15283 -4.47118 -4.21859 -4.36552 -2.23080 -2.24301 -2.24514 -3.87761 -5.74658  6.80686 -1.83875 -3.09913
C	 -2.227983737	 -0.595668054	 0.000005252
H	 -1.978651587	 -1.630117102	 0.000060326
C	 -2.456749072	 0.595668054	 -0.000005252
H	 -2.676634222	 1.634805691	 0.000000000
C	 1.255614404	 -1.316392651	 -0.667217451
O	 0.566797268	 -2.230610381	 -0.271175039
O	 0.937782283	 -0.017841382	 -0.485169714
H	 0.093849874	 0.000000000	 0.000000000
C	 2.549411958	 -1.459535076	 -1.410433307
H	 2.779714827	 -2.510156806	 -1.539034707
H	 2.469571112	 -0.970417426	 -2.378387486
H	 3.344164558	 -0.964565889	 -0.857409766
