12
0  1  0  1  0  1   4   8 -3.66324 -3.47422 -3.44653 -3.63554 -3.49451 -3.57989 -2.40152 -2.40502 -2.41413 -3.50816 -3.74556  3.29138 -1.04433 -2.00965
C	 -0.114382667	 -0.595668054	 -0.000005252
H	 -0.363714818	 -1.630117102	 -0.000060326
C	 0.114382667	 0.595668054	 0.000005252
H	 0.334267817	 1.634805691	 0.000000000
C	 -3.230635891	 -3.039635001	 -0.003055003
O	 -2.085422778	 -3.434093606	 -0.001629224
O	 -3.562708451	 -1.731919333	 -0.001796907
H	 -2.728595188	 -1.229742362	 -0.000000000
C	 -4.451234749	 -3.909634715	 -0.006309968
H	 -4.154337075	 -4.951374240	 -0.010089323
H	 -5.055049394	 -3.693462849	 0.871883364
H	 -5.055317575	 -3.686860910	 -0.882618703
