12
0  1  0  1  0  1   4   8  7.78033  9.08376  8.23586  6.93243  8.15176  7.42059 16.02264 16.01725 15.95506  8.15427 -27.22043 60.15245 -13.81208 -10.96567
C	 -2.227983737	 -0.595668054	 0.000005252
H	 -1.978651587	 -1.630117102	 0.000060326
C	 -2.456749072	 0.595668054	 -0.000005252
H	 -2.676634222	 1.634805691	 0.000000000
C	 0.524749520	 -1.316392651	 -0.667217451
O	 -0.164067616	 -2.230610381	 -0.271175039
O	 0.206917399	 -0.017841382	 -0.485169714
H	 -0.637015010	 0.000000000	 0.000000000
C	 1.818547074	 -1.459535076	 -1.410433307
H	 2.048849943	 -2.510156806	 -1.539034707
H	 1.738706228	 -0.970417426	 -2.378387486
H	 2.613299674	 -0.964565889	 -0.857409766
