12
0  1  0  1  0  1   4   8 -4.87620 -4.53157 -4.61910 -4.96373 -4.68957 -4.84794 -2.66569 -2.67902 -2.67872 -4.30241 -6.47077  7.88854 -2.41796 -3.30221
C	 -0.114382667	 -0.595668054	 -0.000005252
H	 -0.363714818	 -1.630117102	 -0.000060326
C	 0.114382667	 0.595668054	 0.000005252
H	 0.334267817	 1.634805691	 0.000000000
C	 -3.176586687	 -1.316392651	 -1.843692074
O	 -2.489195328	 -2.230610381	 -1.445180140
O	 -2.860012661	 -0.017841382	 -1.659465250
H	 -2.017877160	 -0.000000000	 -1.171183202
C	 -4.467129275	 -1.459535076	 -2.592545694
H	 -4.693652789	 -2.510156806	 -2.727693129
H	 -5.265481761	 -0.970417426	 -2.039424404
H	 -4.385573140	 -0.964565889	 -3.557333406
