12
0  1  0  1  0  1   4   8  7.78376  9.08650  8.23874  6.93599  8.15459  7.42391 16.02912 16.02370 15.96163  8.16366 -27.20765 60.10910 -13.77622 -10.96157
C	 -2.227983737	 -0.595668054	 0.000005252
H	 -1.978651587	 -1.630117102	 0.000060326
C	 -2.456749072	 0.595668054	 -0.000005252
H	 -2.676634222	 1.634805691	 0.000000000
C	 0.522720713	 -1.316392651	 0.672508871
O	 -0.164670644	 -2.230610381	 0.273996938
O	 0.206146688	 -0.017841382	 0.488282048
H	 -0.635988814	 0.000000000	 0.000000000
C	 1.813263302	 -1.459535076	 1.421362492
H	 2.039786816	 -2.510156806	 1.556509927
H	 2.611615788	 -0.970417426	 0.868241201
H	 1.731707167	 -0.964565889	 2.386150204
