12
0  1  0  1  0  1   4   8  3.78856  4.68413  3.88847  2.99290  3.82521  3.33444 10.30586 10.30872 10.28598  4.13276 -15.50391 39.28334 -11.49275 -8.15392
C	 -0.114382667	 -0.595668054	 -0.000005252
H	 -0.363714818	 -1.630117102	 -0.000060326
C	 0.114382667	 0.595668054	 0.000005252
H	 0.334267817	 1.634805691	 0.000000000
C	 -3.345972603	 0.349661925	 -0.003055003
O	 -3.114977220	 -0.839351026	 -0.001629224
O	 -2.379493894	 1.291103032	 -0.001796907
H	 -1.527539249	 0.819828241	 -0.000000000
C	 -4.709713886	 0.971731687	 -0.006309968
H	 -5.463437942	 0.193740997	 -0.010089323
H	 -4.824410881	 1.602736442	 0.871883364
H	 -4.818827525	 1.606269663	 -0.882618703
