12
0  1  0  1  0  1   4   8  1.85768  2.47478  2.41889  1.80180  2.35153  2.01805  5.02770  5.01342  4.97629  2.08117 -13.68151 26.35834 -4.83160 -5.76406
C	 -2.227983737	 -0.595668054	 0.000005252
H	 -1.978651587	 -1.630117102	 0.000060326
C	 -2.456749072	 0.595668054	 -0.000005252
H	 -2.676634222	 1.634805691	 0.000000000
C	 0.910633589	 -1.809892638	 0.003055003
O	 -0.234579523	 -2.204351244	 0.001629224
O	 1.242706150	 -0.502176971	 0.001796907
H	 0.408592886	 0.000000000	 0.000000000
C	 2.131232448	 -2.679892353	 0.006309968
H	 1.834334775	 -3.721631878	 0.010089323
H	 2.735047093	 -2.463720487	 -0.871883364
H	 2.735315274	 -2.457118548	 0.882618703
