12
0  1  0  1  0  1   4   8 -3.93035 -3.43334 -3.62173 -4.11875 -3.69303 -3.94045 -0.55057 -0.56012 -0.56320 -3.16829 -9.22536 14.24053 -3.52933 -4.65413
C	 -2.227983737	 -0.595668054	 0.000005252
H	 -1.978651587	 -1.630117102	 0.000060326
C	 -2.456749072	 0.595668054	 -0.000005252
H	 -2.676634222	 1.634805691	 0.000000000
C	 1.010257168	 -1.316392651	 0.672508871
O	 0.322865811	 -2.230610381	 0.273996938
O	 0.693683143	 -0.017841382	 0.488282048
H	 -0.148452359	 0.000000000	 0.000000000
C	 2.300799757	 -1.459535076	 1.421362492
H	 2.527323271	 -2.510156806	 1.556509927
H	 3.099152243	 -0.970417426	 0.868241201
H	 2.219243622	 -0.964565889	 2.386150204
