12
0  1  0  1  0  1   4   8 -2.60683 -2.45741 -2.42100 -2.57042 -2.43874 -2.51376 -1.64095 -1.63394 -1.63131 -2.52441 -3.14979  3.23251 -0.75529 -1.85185
C	 -2.227983737	 -0.595668054	 0.000005252
H	 -1.978651587	 -1.630117102	 0.000060326
C	 -2.456749072	 0.595668054	 -0.000005252
H	 -2.676634222	 1.634805691	 0.000000000
C	 1.598373411	 -1.809892638	 0.003055003
O	 0.453160299	 -2.204351244	 0.001629224
O	 1.930445972	 -0.502176971	 0.001796907
H	 1.096332708	 0.000000000	 0.000000000
C	 2.818972270	 -2.679892353	 0.006309968
H	 2.522074597	 -3.721631878	 0.010089323
H	 3.422786915	 -2.463720487	 -0.871883364
H	 3.423055096	 -2.457118548	 0.882618703
