12
0  1  0  1  0  1   4   8  7.50826  8.72533  8.02375  6.80668  7.92900  7.25809 15.13454 15.11540 15.06309  7.01837 -26.55872 62.26394 -17.37418 -11.31266
C	 -0.114382667	 -0.595668054	 -0.000005252
H	 -0.363714818	 -1.630117102	 -0.000060326
C	 0.114382667	 0.595668054	 0.000005252
H	 0.334267817	 1.634805691	 0.000000000
C	 -2.321104162	 -2.629720880	 -0.003055003
O	 -1.175891049	 -3.024179485	 -0.001629224
O	 -2.653176722	 -1.322005212	 -0.001796907
H	 -1.819063459	 -0.819828241	 -0.000000000
C	 -3.541703020	 -3.499720594	 -0.006309968
H	 -3.244805346	 -4.541460119	 -0.010089323
H	 -4.145517665	 -3.283548728	 0.871883364
H	 -4.145785846	 -3.276946789	 -0.882618703
