12
0  1  0  1  0  1   4   8 -3.23193 -2.95856 -3.11194 -3.38531 -3.17463 -3.29597 -0.94467 -0.95764 -0.95655 -2.73885 -3.98299  6.22005 -2.14376 -2.83215
C	 -0.114382667	 -0.595668054	 -0.000005252
H	 -0.363714818	 -1.630117102	 -0.000060326
C	 0.114382667	 0.595668054	 0.000005252
H	 0.334267817	 1.634805691	 0.000000000
C	 -3.891522335	 0.642457726	 -0.003055003
O	 -3.660526952	 -0.546555225	 -0.001629224
O	 -2.925043626	 1.583898833	 -0.001796907
H	 -2.073088981	 1.112624042	 -0.000000000
C	 -5.255263618	 1.264527488	 -0.006309968
H	 -6.008987674	 0.486536798	 -0.010089323
H	 -5.369960613	 1.895532243	 0.871883364
H	 -5.364377257	 1.899065464	 -0.882618703
