12
0  1  0  1  0  1   4   8 -4.39061 -4.16071 -4.19225 -4.42215 -4.25728 -4.35246 -2.95414 -2.97065 -2.97033 -4.02326 -4.31856  3.86770 -1.32091 -2.25149
C	 -0.114382667	 -0.595668054	 -0.000005252
H	 -0.363714818	 -1.630117102	 -0.000060326
C	 0.114382667	 0.595668054	 0.000005252
H	 0.334267817	 1.634805691	 0.000000000
C	 -3.381736280	 -1.316392651	 1.955518973
O	 -2.692919142	 -2.230610381	 1.559476561
O	 -3.063904158	 -0.017841382	 1.773471236
H	 -2.219971750	 -0.000000000	 1.288301522
C	 -4.675533833	 -1.459535076	 2.698734829
H	 -4.905836702	 -2.510156806	 2.827336229
H	 -4.595692987	 -0.970417426	 3.666689008
H	 -5.470286433	 -0.964565889	 2.145711288
