12
0  1  0  1  0  1   4   8 -3.74165 -3.31644 -3.36619 -3.79141 -3.43810 -3.65379 -1.00414 -1.01772 -1.04483 -3.36814 -8.03122 12.17278 -3.38990 -4.11981
C	 -0.114382667	 -0.595668054	 -0.000005252
H	 -0.363714818	 -1.630117102	 -0.000060326
C	 0.114382667	 0.595668054	 0.000005252
H	 0.334267817	 1.634805691	 0.000000000
C	 -2.840836579	 -2.863957521	 -0.003055003
O	 -1.695623466	 -3.258416126	 -0.001629224
O	 -3.172909139	 -1.556241853	 -0.001796907
H	 -2.338795876	 -1.054064882	 -0.000000000
C	 -4.061435437	 -3.733957235	 -0.006309968
H	 -3.764537763	 -4.775696760	 -0.010089323
H	 -4.665250082	 -3.517785369	 0.871883364
H	 -4.665518263	 -3.511183430	 -0.882618703
