12
0  1  0  1  0  1   4   8 -3.34601 -3.03585 -3.23535 -3.54551 -3.29946 -3.43995 -0.83523 -0.84636 -0.84220 -2.66530 -5.09053  7.56891 -2.25406 -2.88963
C	 -2.227983737	 -0.595668054	 0.000005252
H	 -1.978651587	 -1.630117102	 0.000060326
C	 -2.456749072	 0.595668054	 -0.000005252
H	 -2.676634222	 1.634805691	 0.000000000
C	 1.724546809	 -0.470166316	 0.003055003
O	 1.493551427	 -1.659179267	 0.001629224
O	 0.758068101	 0.471274791	 0.001796907
H	 -0.093886545	 0.000000000	 0.000000000
C	 3.088288093	 0.151903446	 0.006309968
H	 3.842012150	 -0.626087244	 0.010089323
H	 3.202985088	 0.782908200	 -0.871883364
H	 3.197401732	 0.786441422	 0.882618703
