12
0  1  0  1  0  1   4   8 -4.69694 -4.41623 -4.47022 -4.75093 -4.53876 -4.66128 -2.91495 -2.93040 -2.93006 -4.23118 -5.25431  5.52755 -1.78198 -2.72244
C	 -0.114382667	 -0.595668054	 -0.000005252
H	 -0.363714818	 -1.630117102	 -0.000060326
C	 0.114382667	 0.595668054	 0.000005252
H	 0.334267817	 1.634805691	 0.000000000
C	 -3.280828473	 -1.316392651	 1.896959813
O	 -2.592011335	 -2.230610381	 1.500917401
O	 -2.962996351	 -0.017841382	 1.714912076
H	 -2.119063943	 -0.000000000	 1.229742362
C	 -4.574626026	 -1.459535076	 2.640175669
H	 -4.804928895	 -2.510156806	 2.768777069
H	 -4.494785180	 -0.970417426	 3.608129848
H	 -5.369378626	 -0.964565889	 2.087152128
