12
0  1  0  1  0  1   4   8 -0.50833  0.09771 -0.41909 -1.02513 -0.48272 -0.79336  4.24490  4.24351  4.25047  0.41334 -10.60034 22.39106 -6.02869 -5.34869
C	 -2.227983737	 -0.595668054	 0.000005252
H	 -1.978651587	 -1.630117102	 0.000060326
C	 -2.456749072	 0.595668054	 -0.000005252
H	 -2.676634222	 1.634805691	 0.000000000
C	 1.369523673	 -0.470166316	 0.003055003
O	 1.138528291	 -1.659179267	 0.001629224
O	 0.403044965	 0.471274791	 0.001796907
H	 -0.448909681	 0.000000000	 0.000000000
C	 2.733264957	 0.151903446	 0.006309968
H	 3.486989014	 -0.626087244	 0.010089323
H	 2.847961952	 0.782908200	 -0.871883364
H	 2.842378596	 0.786441422	 0.882618703
