12
0  1  0  1  0  1   4   8 -3.29321 -3.08411 -3.18639 -3.39549 -3.24845 -3.33376 -1.65795 -1.67470 -1.67542 -2.85352 -3.32715  3.62100 -1.20061 -1.94676
C	 -2.227983737	 -0.595668054	 0.000005252
H	 -1.978651587	 -1.630117102	 0.000060326
C	 -2.456749072	 0.595668054	 -0.000005252
H	 -2.676634222	 1.634805691	 0.000000000
C	 1.961228899	 -0.470166316	 0.003055003
O	 1.730233517	 -1.659179267	 0.001629224
O	 0.994750191	 0.471274791	 0.001796907
H	 0.142795545	 0.000000000	 0.000000000
C	 3.324970183	 0.151903446	 0.006309968
H	 4.078694240	 -0.626087244	 0.010089323
H	 3.439667178	 0.782908200	 -0.871883364
H	 3.434083822	 0.786441422	 0.882618703
