12
0  1  0  1  0  1   4   8 -3.32334 -3.17977 -3.14860 -3.29217 -3.18823 -3.25050 -2.35237 -2.35316 -2.35832 -3.21000 -3.00471  2.10636 -0.71808 -1.59357
C	 -0.114382667	 -0.595668054	 -0.000005252
H	 -0.363714818	 -1.630117102	 -0.000060326
C	 0.114382667	 0.595668054	 0.000005252
H	 0.334267817	 1.634805691	 0.000000000
C	 -3.360568995	 -3.098194161	 -0.003055003
O	 -2.215355882	 -3.492652766	 -0.001629224
O	 -3.692641555	 -1.790478493	 -0.001796907
H	 -2.858528292	 -1.288301522	 -0.000000000
C	 -4.581167853	 -3.968193875	 -0.006309968
H	 -4.284270179	 -5.009933400	 -0.010089323
H	 -5.184982498	 -3.752022009	 0.871883364
H	 -5.185250679	 -3.745420070	 -0.882618703
