12
0  1  0  1  0  1   4   8 -3.10599 -2.88465 -2.99501 -3.21634 -3.05556 -3.14886 -1.24426 -1.25907 -1.25990 -2.71429 -3.11299  4.26778 -1.55422 -2.31485
C	 -0.114382667	 -0.595668054	 -0.000005252
H	 -0.363714818	 -1.630117102	 -0.000060326
C	 0.114382667	 0.595668054	 0.000005252
H	 0.334267817	 1.634805691	 0.000000000
C	 -4.000632281	 0.701016886	 -0.003055003
O	 -3.769636898	 -0.487996065	 -0.001629224
O	 -3.034153572	 1.642457993	 -0.001796907
H	 -2.182198927	 1.171183202	 -0.000000000
C	 -5.364373564	 1.323086648	 -0.006309968
H	 -6.118097620	 0.545095958	 -0.010089323
H	 -5.479070559	 1.954091403	 0.871883364
H	 -5.473487203	 1.957624624	 -0.882618703
