12
0  1  0  1  0  1   4   8  6.74952  7.72952  6.81126  5.83127  6.74410  6.20416 13.97288 13.97575 13.94681  7.30430 -17.96255 45.29600 -11.77336 -8.25579
C	 -2.227983737	 -0.595668054	 0.000005252
H	 -1.978651587	 -1.630117102	 0.000060326
C	 -2.456749072	 0.595668054	 -0.000005252
H	 -2.676634222	 1.634805691	 0.000000000
C	 1.132841583	 -0.470166316	 0.003055003
O	 0.901846201	 -1.659179267	 0.001629224
O	 0.166362875	 0.471274791	 0.001796907
H	 -0.685591771	 0.000000000	 0.000000000
C	 2.496582867	 0.151903446	 0.006309968
H	 3.250306924	 -0.626087244	 0.010089323
H	 2.611279862	 0.782908200	 -0.871883364
H	 2.605696506	 0.786441422	 0.882618703
