12
0  1  0  1  0  1   4   8 -4.34961 -3.95278 -4.07546 -4.47229 -4.14438 -4.33490 -1.64567 -1.65676 -1.65902 -3.70970 -7.23771  9.86702 -2.54517 -3.79384
C	 -2.227983737	 -0.595668054	 0.000005252
H	 -1.978651587	 -1.630117102	 0.000060326
C	 -2.456749072	 0.595668054	 -0.000005252
H	 -2.676634222	 1.634805691	 0.000000000
C	 1.133803590	 -1.316392651	 -0.667217451
O	 0.444986454	 -2.230610381	 -0.271175039
O	 0.815971469	 -0.017841382	 -0.485169714
H	 -0.027960940	 0.000000000	 0.000000000
C	 2.427601144	 -1.459535076	 -1.410433307
H	 2.657904013	 -2.510156806	 -1.539034707
H	 2.347760298	 -0.970417426	 -2.378387486
H	 3.222353744	 -0.964565889	 -0.857409766
