12
0  1  0  1  0  1   4   8  7.42890  8.76908  7.90104  6.56086  7.82580  7.06391 15.43153 15.43211 15.35960  7.40912 -27.89377 62.76160 -16.24178 -11.21693
C	 -0.114382667	 -0.595668054	 -0.000005252
H	 -0.363714818	 -1.630117102	 -0.000060326
C	 0.114382667	 0.595668054	 0.000005252
H	 0.334267817	 1.634805691	 0.000000000
C	 -2.571223539	 -1.316392651	 -1.492337113
O	 -1.883832180	 -2.230610381	 -1.093825179
O	 -2.254649513	 -0.017841382	 -1.308110289
H	 -1.412514012	 -0.000000000	 -0.819828241
C	 -3.861766127	 -1.459535076	 -2.241190733
H	 -4.088289641	 -2.510156806	 -2.376338168
H	 -4.660118613	 -0.970417426	 -1.688069443
H	 -3.780209992	 -0.964565889	 -3.205978445
