12
0  1  0  1  0  1   4   8 -4.34347 -3.94704 -4.06967 -4.46610 -4.13849 -4.32885 -1.63993 -1.65100 -1.65329 -3.70411 -7.22601  9.84854 -2.53560 -3.79104
C	 -2.227983737	 -0.595668054	 0.000005252
H	 -1.978651587	 -1.630117102	 0.000060326
C	 -2.456749072	 0.595668054	 -0.000005252
H	 -2.676634222	 1.634805691	 0.000000000
C	 1.132141281	 -1.316392651	 0.672508871
O	 0.444749924	 -2.230610381	 0.273996938
O	 0.815567256	 -0.017841382	 0.488282048
H	 -0.026568246	 0.000000000	 0.000000000
C	 2.422683870	 -1.459535076	 1.421362492
H	 2.649207384	 -2.510156806	 1.556509927
H	 3.221036356	 -0.970417426	 0.868241201
H	 2.341127735	 -0.964565889	 2.386150204
