12
0  1  0  1  0  1   4   8 -1.34560 -0.49321 -0.92915 -1.78154 -0.99975 -1.46051  3.91672  3.91478  3.89395 -0.63674 -16.94212 32.45912 -8.69198 -7.46177
C	 -0.610562566	 0.227503096	 -0.170602070
H	 0.107385058	 0.861436027	 -0.634209239
C	 -1.386275728	 -0.525325504	 0.379973527
H	 -2.080703238	 -1.174067393	 0.854379369
C	 2.451316208	 -0.471145792	 0.340778375
O	 2.197137150	 0.484956455	 -0.358059373
O	 1.503411589	 -1.245486019	 0.908464980
H	 0.642412201	 -0.878187032	 0.640693838
C	 3.826951361	 -0.952595622	 0.690929283
H	 4.565337174	 -0.315045534	 0.220078959
H	 3.953161877	 -0.940740896	 1.770964607
H	 3.949228504	 -1.980440168	 0.357694953
