12
0  1  0  1  0  1   4   8 -2.59704 -2.38132 -2.34388 -2.55960 -2.37078 -2.48124 -1.30240 -1.29797 -1.30105 -2.48782 -4.39235  5.51484 -1.16862 -2.44168
C	 -2.227983737	 -0.595668054	 0.000005252
H	 -1.978651587	 -1.630117102	 0.000060326
C	 -2.456749072	 0.595668054	 -0.000005252
H	 -2.676634222	 1.634805691	 0.000000000
C	 1.426438455	 -1.809892638	 0.003055003
O	 0.281225343	 -2.204351244	 0.001629224
O	 1.758511016	 -0.502176971	 0.001796907
H	 0.924397752	 0.000000000	 0.000000000
C	 2.647037314	 -2.679892353	 0.006309968
H	 2.350139641	 -3.721631878	 0.010089323
H	 3.250851959	 -2.463720487	 -0.871883364
H	 3.251120140	 -2.457118548	 0.882618703
