12
0  1  0  1  0  1   4   8 -3.07721 -2.90410 -2.97710 -3.15022 -3.03605 -3.10281 -1.75892 -1.77682 -1.77861 -2.73819 -2.74360  2.49625 -0.88473 -1.60611
C	 -2.227983737	 -0.595668054	 0.000005252
H	 -1.978651587	 -1.630117102	 0.000060326
C	 -2.456749072	 0.595668054	 -0.000005252
H	 -2.676634222	 1.634805691	 0.000000000
C	 2.079569944	 -0.470166316	 0.003055003
O	 1.848574562	 -1.659179267	 0.001629224
O	 1.113091236	 0.471274791	 0.001796907
H	 0.261136590	 0.000000000	 0.000000000
C	 3.443311228	 0.151903446	 0.006309968
H	 4.197035285	 -0.626087244	 0.010089323
H	 3.558008223	 0.782908200	 -0.871883364
H	 3.552424867	 0.786441422	 0.882618703
