12
0  1  0  1  0  1   4   8 -0.98681 -0.18793 -0.60369 -1.40257 -0.67963 -1.10413  4.29682  4.29051  4.27498 -0.11524 -15.58334 29.48836 -6.92893 -7.09133
C	 -2.227983737	 -0.595668054	 0.000005252
H	 -1.978651587	 -1.630117102	 0.000060326
C	 -2.456749072	 0.595668054	 -0.000005252
H	 -2.676634222	 1.634805691	 0.000000000
C	 0.766488941	 -1.316392651	 0.672508871
O	 0.079097584	 -2.230610381	 0.273996938
O	 0.449914916	 -0.017841382	 0.488282048
H	 -0.392220586	 0.000000000	 0.000000000
C	 2.057031530	 -1.459535076	 1.421362492
H	 2.283555044	 -2.510156806	 1.556509927
H	 2.855384016	 -0.970417426	 0.868241201
H	 1.975475395	 -0.964565889	 2.386150204
