25
0  1  0  1  0  1   8  17 -1.43315 -1.34820 -1.36848 -1.45344 -1.41875 -1.43886  0.51284  0.51225  0.51212 -1.45977 -0.23976  0.93255 -0.14280 -2.00976
C	 -4.113039735	 -1.905486698	 0.014855704
O	 -4.638757450	 -0.880958084	 0.382358496
O	 -3.891203835	 -2.952057716	 0.847369384
H	 -4.227921737	 -2.669420845	 1.710699299
C	 -3.620646744	 -2.199984719	 -1.368369366
H	 -3.838353005	 -1.359670875	 -2.016720404
H	 -2.548436394	 -2.381472375	 -1.339073567
H	 -4.097879845	 -3.101942059	 -1.744147664
C	 -0.837435005	 0.276482474	 2.397922354
H	 -0.036755868	 0.936673082	 2.731184280
H	 -1.692737596	 0.900613826	 2.139938463
H	 -1.116810697	 -0.357087195	 3.238966283
C	 -0.389778883	 -0.548675600	 1.198065176
H	 -1.183339114	 -1.243447003	 0.911717661
H	 0.470409838	 -1.164116246	 1.472218728
C	 -0.023037277	 0.317448977	 0.000000000
H	 -0.890863888	 0.915265764	 -0.293346540
H	 0.750574297	 1.032151521	 0.295801016
C	 0.472330741	 -0.486410538	 -1.194835996
H	 -0.278281539	 -1.233487761	 -1.464919296
H	 1.365155331	 -1.045254460	 -0.905311495
C	 0.780950510	 0.390293646	 -2.401249980
H	 1.547352952	 1.125876283	 -2.157758125
H	 1.136864884	 -0.196178604	 -3.246927873
H	 -0.107675363	 0.935055345	 -2.720390018
