25
0  1  0  1  0  1   8  17  6.05694  6.71451  6.35302  5.69544  6.21486  5.90620 15.73873 15.73151 15.71167  6.15876 -8.55153 29.06160 -3.73925 -10.61207
C	 -3.144799969	 -1.428888050	 0.014680122
O	 -3.670517684	 -0.404359436	 0.382182914
O	 -2.922964069	 -2.475459068	 0.847193802
H	 -3.259681971	 -2.192822197	 1.710523717
C	 -2.652406978	 -1.723386071	 -1.368544948
H	 -2.870113239	 -0.883072227	 -2.016895986
H	 -1.580196628	 -1.904873727	 -1.339249149
H	 -3.129640079	 -2.625343411	 -1.744323246
C	 -0.837435005	 0.276482474	 2.397922354
H	 -0.036755868	 0.936673082	 2.731184280
H	 -1.692737596	 0.900613826	 2.139938463
H	 -1.116810697	 -0.357087195	 3.238966283
C	 -0.389778883	 -0.548675600	 1.198065176
H	 -1.183339114	 -1.243447003	 0.911717661
H	 0.470409838	 -1.164116246	 1.472218728
C	 -0.023037277	 0.317448977	 0.000000000
H	 -0.890863888	 0.915265764	 -0.293346540
H	 0.750574297	 1.032151521	 0.295801016
C	 0.472330741	 -0.486410538	 -1.194835996
H	 -0.278281539	 -1.233487761	 -1.464919296
H	 1.365155331	 -1.045254460	 -0.905311495
C	 0.780950510	 0.390293646	 -2.401249980
H	 1.547352952	 1.125876283	 -2.157758125
H	 1.136864884	 -0.196178604	 -3.246927873
H	 -0.107675363	 0.935055345	 -2.720390018
