25
0  1  0  1  0  1   8  17 -2.06557 -1.80765 -1.93962 -2.19754 -2.02372 -2.12690  1.93891  1.93703  1.93065 -2.04214 -2.38043  5.69869 -0.92450 -4.43590
C	 0.145052108	 0.088690289	 -0.014785472
O	 -0.479356841	 1.056239494	 -0.382288264
O	 0.940491247	 -0.626710744	 -0.847299152
H	 0.864079486	 -0.193786052	 -1.710629067
C	 0.153898379	 -0.484983560	 1.368439598
H	 -0.464981625	 0.123712515	 2.016790636
H	 -0.225033874	 -1.504288789	 1.339143799
H	 1.173632900	 -0.522666241	 1.744217896
C	 -2.975910550	 0.276482474	 -2.397922354
H	 -3.776589687	 0.936673082	 -2.731184280
H	 -2.120607959	 0.900613826	 -2.139938463
H	 -2.696534858	 -0.357087195	 -3.238966283
C	 -3.423566672	 -0.548675600	 -1.198065176
H	 -2.630006441	 -1.243447003	 -0.911717661
H	 -4.283755393	 -1.164116246	 -1.472218728
C	 -3.790308278	 0.317448977	 0.000000000
H	 -2.922481667	 0.915265764	 0.293346540
H	 -4.563919853	 1.032151521	 -0.295801016
C	 -4.285676296	 -0.486410538	 1.194835996
H	 -3.535064017	 -1.233487761	 1.464919296
H	 -5.178500886	 -1.045254460	 0.905311495
C	 -4.594296065	 0.390293646	 2.401249980
H	 -5.360698507	 1.125876283	 2.157758125
H	 -4.950210439	 -0.196178604	 3.246927873
H	 -3.705670193	 0.935055345	 2.720390018
