25
0  1  0  1  0  1   8  17  6.08390  7.08328  6.65584  5.65647  6.47144  5.98312 17.12115 17.09870 17.05801  6.74966 -14.13578 37.50276 -4.18857 -12.42875
C	 -0.570365078	 0.106857072	 -0.008802534
O	 -0.803462090	 1.256983737	 -0.298579583
O	 -0.699820298	 -0.910417966	 -0.895365522
H	 -1.001332185	 -0.497288304	 -1.718175071
C	 -0.120525902	 -0.394382190	 1.328693430
H	 0.003062746	 0.442204076	 2.005990784
H	 -0.860745103	 -1.087660286	 1.722231310
H	 0.815847058	 -0.936883609	 1.221989653
C	 -2.975910550	 0.276482474	 -2.397922354
H	 -3.776589687	 0.936673082	 -2.731184280
H	 -2.120607959	 0.900613826	 -2.139938463
H	 -2.696534858	 -0.357087195	 -3.238966283
C	 -3.423566672	 -0.548675600	 -1.198065176
H	 -2.630006441	 -1.243447003	 -0.911717661
H	 -4.283755393	 -1.164116246	 -1.472218728
C	 -3.790308278	 0.317448977	 0.000000000
H	 -2.922481667	 0.915265764	 0.293346540
H	 -4.563919853	 1.032151521	 -0.295801016
C	 -4.285676296	 -0.486410538	 1.194835996
H	 -3.535064017	 -1.233487761	 1.464919296
H	 -5.178500886	 -1.045254460	 0.905311495
C	 -4.594296065	 0.390293646	 2.401249980
H	 -5.360698507	 1.125876283	 2.157758125
H	 -4.950210439	 -0.196178604	 3.246927873
H	 -3.705670193	 0.935055345	 2.720390018
