25
0  1  0  1  0  1   8  17  5.96727  6.71384  6.38191  5.63534  6.24253  5.88058 14.69484 14.67950 14.65362  6.55130 -12.10745 32.29232 -3.84895 -9.78462
C	 -3.667289514	 0.106857072	 1.534140757
O	 -3.434192501	 1.256983737	 1.823917806
O	 -3.537834293	 -0.910417966	 2.420703745
H	 -3.236322407	 -0.497288304	 3.243513294
C	 -4.117128690	 -0.394382190	 0.196644793
H	 -4.240717337	 0.442204076	 -0.480652561
H	 -3.376909488	 -1.087660286	 -0.196893088
H	 -5.053501649	 -0.936883609	 0.303348570
C	 -0.837435005	 0.276482474	 2.397922354
H	 -0.036755868	 0.936673082	 2.731184280
H	 -1.692737596	 0.900613826	 2.139938463
H	 -1.116810697	 -0.357087195	 3.238966283
C	 -0.389778883	 -0.548675600	 1.198065176
H	 -1.183339114	 -1.243447003	 0.911717661
H	 0.470409838	 -1.164116246	 1.472218728
C	 -0.023037277	 0.317448977	 0.000000000
H	 -0.890863888	 0.915265764	 -0.293346540
H	 0.750574297	 1.032151521	 0.295801016
C	 0.472330741	 -0.486410538	 -1.194835996
H	 -0.278281539	 -1.233487761	 -1.464919296
H	 1.365155331	 -1.045254460	 -0.905311495
C	 0.780950510	 0.390293646	 -2.401249980
H	 1.547352952	 1.125876283	 -2.157758125
H	 1.136864884	 -0.196178604	 -3.246927873
H	 -0.107675363	 0.935055345	 -2.720390018
