25
0  1  0  1  0  1   8  17 -2.25115 -2.03899 -2.10138 -2.31354 -2.19366 -2.26419  1.40269  1.39728  1.39438 -2.20030 -1.04785  2.97120 -0.32405 -3.79960
C	 0.349382340	 0.096505810	 -0.014820588
O	 0.875100056	 1.121034424	 -0.382323380
O	 0.127546441	 -0.950065208	 -0.847334268
H	 0.464264342	 -0.667428337	 -1.710664183
C	 -0.143010651	 -0.197992211	 1.368404482
H	 0.074695611	 0.642321632	 2.016755520
H	 -1.215221000	 -0.379479867	 1.339108683
H	 0.334222451	 -1.099949551	 1.744182780
C	 -2.975910550	 0.276482474	 -2.397922354
H	 -3.776589687	 0.936673082	 -2.731184280
H	 -2.120607959	 0.900613826	 -2.139938463
H	 -2.696534858	 -0.357087195	 -3.238966283
C	 -3.423566672	 -0.548675600	 -1.198065176
H	 -2.630006441	 -1.243447003	 -0.911717661
H	 -4.283755393	 -1.164116246	 -1.472218728
C	 -3.790308278	 0.317448977	 0.000000000
H	 -2.922481667	 0.915265764	 0.293346540
H	 -4.563919853	 1.032151521	 -0.295801016
C	 -4.285676296	 -0.486410538	 1.194835996
H	 -3.535064017	 -1.233487761	 1.464919296
H	 -5.178500886	 -1.045254460	 0.905311495
C	 -4.594296065	 0.390293646	 2.401249980
H	 -5.360698507	 1.125876283	 2.157758125
H	 -4.950210439	 -0.196178604	 3.246927873
H	 -3.705670193	 0.935055345	 2.720390018
