25
0  1  0  1  0  1   8  17  4.87668  5.62009  5.18028  4.43687  4.99477  4.66321 15.28866 15.27313 15.25173  5.16460 -8.46225 27.40962 -2.69587 -11.08689
C	 -0.189601028	 0.106857072	 -0.016624178
O	 -0.055195248	 1.256983737	 -0.363380636
O	 0.513457432	 -0.910417966	 -0.572017181
H	 1.075275460	 -0.497288304	 -1.244538909
C	 -1.122986922	 -0.394382190	 1.041695958
H	 -1.647749312	 0.442204076	 1.487375544
H	 -1.833910324	 -1.087660286	 0.597416265
H	 -0.562392260	 -0.936883609	 1.799266840
C	 -2.975910550	 0.276482474	 -2.397922354
H	 -3.776589687	 0.936673082	 -2.731184280
H	 -2.120607959	 0.900613826	 -2.139938463
H	 -2.696534858	 -0.357087195	 -3.238966283
C	 -3.423566672	 -0.548675600	 -1.198065176
H	 -2.630006441	 -1.243447003	 -0.911717661
H	 -4.283755393	 -1.164116246	 -1.472218728
C	 -3.790308278	 0.317448977	 0.000000000
H	 -2.922481667	 0.915265764	 0.293346540
H	 -4.563919853	 1.032151521	 -0.295801016
C	 -4.285676296	 -0.486410538	 1.194835996
H	 -3.535064017	 -1.233487761	 1.464919296
H	 -5.178500886	 -1.045254460	 0.905311495
C	 -4.594296065	 0.390293646	 2.401249980
H	 -5.360698507	 1.125876283	 2.157758125
H	 -4.950210439	 -0.196178604	 3.246927873
H	 -3.705670193	 0.935055345	 2.720390018
