25
0  1  0  1  0  1   8  17 -1.42919 -1.04576 -1.25918 -1.64261 -1.36592 -1.53176  3.99380  3.98844  3.97451 -1.28509 -4.16989 10.38645 -1.48276 -6.01889
C	 -0.066451575	 0.088669703	 -0.014750355
O	 -0.690860524	 1.056218908	 -0.382253147
O	 0.728987564	 -0.626731330	 -0.847264035
H	 0.652575803	 -0.193806638	 -1.710593950
C	 -0.057605304	 -0.485004146	 1.368474715
H	 -0.676485308	 0.123691929	 2.016825753
H	 -0.436537557	 -1.504309375	 1.339178916
H	 0.962129217	 -0.522686827	 1.744253013
C	 -2.975910550	 0.276482474	 -2.397922354
H	 -3.776589687	 0.936673082	 -2.731184280
H	 -2.120607959	 0.900613826	 -2.139938463
H	 -2.696534858	 -0.357087195	 -3.238966283
C	 -3.423566672	 -0.548675600	 -1.198065176
H	 -2.630006441	 -1.243447003	 -0.911717661
H	 -4.283755393	 -1.164116246	 -1.472218728
C	 -3.790308278	 0.317448977	 0.000000000
H	 -2.922481667	 0.915265764	 0.293346540
H	 -4.563919853	 1.032151521	 -0.295801016
C	 -4.285676296	 -0.486410538	 1.194835996
H	 -3.535064017	 -1.233487761	 1.464919296
H	 -5.178500886	 -1.045254460	 0.905311495
C	 -4.594296065	 0.390293646	 2.401249980
H	 -5.360698507	 1.125876283	 2.157758125
H	 -4.950210439	 -0.196178604	 3.246927873
H	 -3.705670193	 0.935055345	 2.720390018
