25
0  1  0  1  0  1   8  17 -1.50280 -1.37736 -1.39326 -1.51870 -1.45724 -1.49303  0.84413  0.84285  0.84224 -1.47399 -0.43716  1.60058 -0.22275 -2.41465
C	 -4.000240842	 0.106934903	 -1.889940305
O	 -4.134646621	 1.257061568	 -1.543183846
O	 -4.703299301	 -0.910340135	 -1.334547301
H	 -5.265117330	 -0.497210473	 -0.662025574
C	 -3.066854948	 -0.394304359	 -2.948260441
H	 -2.542092557	 0.442281907	 -3.393940026
H	 -2.355931545	 -1.087582455	 -2.503980748
H	 -3.627449609	 -0.936805778	 -3.705831323
C	 -0.837435005	 0.276482474	 2.397922354
H	 -0.036755868	 0.936673082	 2.731184280
H	 -1.692737596	 0.900613826	 2.139938463
H	 -1.116810697	 -0.357087195	 3.238966283
C	 -0.389778883	 -0.548675600	 1.198065176
H	 -1.183339114	 -1.243447003	 0.911717661
H	 0.470409838	 -1.164116246	 1.472218728
C	 -0.023037277	 0.317448977	 0.000000000
H	 -0.890863888	 0.915265764	 -0.293346540
H	 0.750574297	 1.032151521	 0.295801016
C	 0.472330741	 -0.486410538	 -1.194835996
H	 -0.278281539	 -1.233487761	 -1.464919296
H	 1.365155331	 -1.045254460	 -0.905311495
C	 0.780950510	 0.390293646	 -2.401249980
H	 1.547352952	 1.125876283	 -2.157758125
H	 1.136864884	 -0.196178604	 -3.246927873
H	 -0.107675363	 0.935055345	 -2.720390018
