25
0  1  0  1  0  1   8  17 22.50155 23.92148 22.90552 21.48559 22.67849 21.97139 40.00304 39.99970 39.95833 22.15457 -24.00350 73.33448 -7.69442 -19.48199
C	 -2.541159953	 1.423258301	 0.014609889
O	 -1.916751003	 2.390807505	 0.382112681
O	 -3.336599091	 0.707857267	 0.847123569
H	 -3.260187331	 1.140781960	 1.710453484
C	 -2.550006224	 0.849584452	 -1.368615181
H	 -1.931126219	 1.458280527	 -2.016966219
H	 -2.171073970	 -0.169720778	 -1.339319382
H	 -3.569740744	 0.811901771	 -1.744393479
C	 -0.837435005	 0.276482474	 2.397922354
H	 -0.036755868	 0.936673082	 2.731184280
H	 -1.692737596	 0.900613826	 2.139938463
H	 -1.116810697	 -0.357087195	 3.238966283
C	 -0.389778883	 -0.548675600	 1.198065176
H	 -1.183339114	 -1.243447003	 0.911717661
H	 0.470409838	 -1.164116246	 1.472218728
C	 -0.023037277	 0.317448977	 0.000000000
H	 -0.890863888	 0.915265764	 -0.293346540
H	 0.750574297	 1.032151521	 0.295801016
C	 0.472330741	 -0.486410538	 -1.194835996
H	 -0.278281539	 -1.233487761	 -1.464919296
H	 1.365155331	 -1.045254460	 -0.905311495
C	 0.780950510	 0.390293646	 -2.401249980
H	 1.547352952	 1.125876283	 -2.157758125
H	 1.136864884	 -0.196178604	 -3.246927873
H	 -0.107675363	 0.935055345	 -2.720390018
