25
0  1  0  1  0  1   8  17  4.61477  5.43965  4.85705  4.03217  4.69204  4.29325 14.59270 14.57638 14.53537  5.27373 -12.84819 33.20401 -3.91029 -11.17181
C	 -0.489458940	 0.088628529	 -0.014680122
O	 -1.113867889	 1.056177734	 -0.382182914
O	 0.305980199	 -0.626772504	 -0.847193802
H	 0.229568438	 -0.193847812	 -1.710523717
C	 -0.480612669	 -0.485045320	 1.368544948
H	 -1.099492673	 0.123650755	 2.016895986
H	 -0.859544922	 -1.504350549	 1.339249149
H	 0.539121852	 -0.522728001	 1.744323246
C	 -2.975910550	 0.276482474	 -2.397922354
H	 -3.776589687	 0.936673082	 -2.731184280
H	 -2.120607959	 0.900613826	 -2.139938463
H	 -2.696534858	 -0.357087195	 -3.238966283
C	 -3.423566672	 -0.548675600	 -1.198065176
H	 -2.630006441	 -1.243447003	 -0.911717661
H	 -4.283755393	 -1.164116246	 -1.472218728
C	 -3.790308278	 0.317448977	 0.000000000
H	 -2.922481667	 0.915265764	 0.293346540
H	 -4.563919853	 1.032151521	 -0.295801016
C	 -4.285676296	 -0.486410538	 1.194835996
H	 -3.535064017	 -1.233487761	 1.464919296
H	 -5.178500886	 -1.045254460	 0.905311495
C	 -4.594296065	 0.390293646	 2.401249980
H	 -5.360698507	 1.125876283	 2.157758125
H	 -4.950210439	 -0.196178604	 3.246927873
H	 -3.705670193	 0.935055345	 2.720390018
