25
0  1  0  1  0  1   8  17 -1.63248 -1.39747 -1.45915 -1.69416 -1.56119 -1.63906  2.38035  2.37515  2.37277 -1.54548 -1.22813  4.33546 -0.51819 -4.13463
C	 0.489815560	 0.106915445	 -0.016705399
O	 0.624221340	 1.257042110	 -0.363461857
O	 1.192874020	 -0.910359593	 -0.572098402
H	 1.754692048	 -0.497229931	 -1.244620130
C	 -0.443570334	 -0.394323817	 1.041614737
H	 -0.968332724	 0.442262449	 1.487294323
H	 -1.154493736	 -1.087601913	 0.597335044
H	 0.117024328	 -0.936825236	 1.799185619
C	 -2.975910550	 0.276482474	 -2.397922354
H	 -3.776589687	 0.936673082	 -2.731184280
H	 -2.120607959	 0.900613826	 -2.139938463
H	 -2.696534858	 -0.357087195	 -3.238966283
C	 -3.423566672	 -0.548675600	 -1.198065176
H	 -2.630006441	 -1.243447003	 -0.911717661
H	 -4.283755393	 -1.164116246	 -1.472218728
C	 -3.790308278	 0.317448977	 0.000000000
H	 -2.922481667	 0.915265764	 0.293346540
H	 -4.563919853	 1.032151521	 -0.295801016
C	 -4.285676296	 -0.486410538	 1.194835996
H	 -3.535064017	 -1.233487761	 1.464919296
H	 -5.178500886	 -1.045254460	 0.905311495
C	 -4.594296065	 0.390293646	 2.401249980
H	 -5.360698507	 1.125876283	 2.157758125
H	 -4.950210439	 -0.196178604	 3.246927873
H	 -3.705670193	 0.935055345	 2.720390018
