25
0  1  0  1  0  1   8  17 -1.44206 -1.25543 -1.28121 -1.46784 -1.36339 -1.42436  1.83958  1.83701  1.83563 -1.36812 -0.91694  3.36697 -0.43271 -3.38544
C	 -3.800238269	 0.106915445	 -1.794633740
O	 -3.934644048	 1.257042110	 -1.447877281
O	 -4.503296728	 -0.910359593	 -1.239240736
H	 -5.065114757	 -0.497229931	 -0.566719009
C	 -2.866852375	 -0.394323817	 -2.852953876
H	 -2.342089984	 0.442262449	 -3.298633461
H	 -2.155928972	 -1.087601913	 -2.408674183
H	 -3.427447036	 -0.936825236	 -3.610524758
C	 -0.837435005	 0.276482474	 2.397922354
H	 -0.036755868	 0.936673082	 2.731184280
H	 -1.692737596	 0.900613826	 2.139938463
H	 -1.116810697	 -0.357087195	 3.238966283
C	 -0.389778883	 -0.548675600	 1.198065176
H	 -1.183339114	 -1.243447003	 0.911717661
H	 0.470409838	 -1.164116246	 1.472218728
C	 -0.023037277	 0.317448977	 0.000000000
H	 -0.890863888	 0.915265764	 -0.293346540
H	 0.750574297	 1.032151521	 0.295801016
C	 0.472330741	 -0.486410538	 -1.194835996
H	 -0.278281539	 -1.233487761	 -1.464919296
H	 1.365155331	 -1.045254460	 -0.905311495
C	 0.780950510	 0.390293646	 -2.401249980
H	 1.547352952	 1.125876283	 -2.157758125
H	 1.136864884	 -0.196178604	 -3.246927873
H	 -0.107675363	 0.935055345	 -2.720390018
