25
0  1  0  1  0  1   8  17 -1.62466 -1.50094 -1.52656 -1.65028 -1.59122 -1.62546  1.01587  1.01539  1.01516 -1.64017 -0.51656  1.87548 -0.25411 -2.74498
C	 -3.919391782	 -1.810166968	 0.014820588
O	 -4.445109497	 -0.785638354	 0.382323380
O	 -3.697555882	 -2.856737986	 0.847334268
H	 -4.034273784	 -2.574101115	 1.710664183
C	 -3.426998791	 -2.104664989	 -1.368404482
H	 -3.644705052	 -1.264351145	 -2.016755520
H	 -2.354788441	 -2.286152645	 -1.339108683
H	 -3.904231892	 -3.006622329	 -1.744182780
C	 -0.837435005	 0.276482474	 2.397922354
H	 -0.036755868	 0.936673082	 2.731184280
H	 -1.692737596	 0.900613826	 2.139938463
H	 -1.116810697	 -0.357087195	 3.238966283
C	 -0.389778883	 -0.548675600	 1.198065176
H	 -1.183339114	 -1.243447003	 0.911717661
H	 0.470409838	 -1.164116246	 1.472218728
C	 -0.023037277	 0.317448977	 0.000000000
H	 -0.890863888	 0.915265764	 -0.293346540
H	 0.750574297	 1.032151521	 0.295801016
C	 0.472330741	 -0.486410538	 -1.194835996
H	 -0.278281539	 -1.233487761	 -1.464919296
H	 1.365155331	 -1.045254460	 -0.905311495
C	 0.780950510	 0.390293646	 -2.401249980
H	 1.547352952	 1.125876283	 -2.157758125
H	 1.136864884	 -0.196178604	 -3.246927873
H	 -0.107675363	 0.935055345	 -2.720390018
