25
0  1  0  1  0  1   8  17 -1.00770 -0.66279 -0.78478 -1.12969 -0.91247 -1.04023  4.50858  4.50005  4.49488 -0.85352 -2.39084  8.17809 -0.91069 -5.73008
C	 0.263343364	 0.106895988	 -0.016678325
O	 0.397749144	 1.257022653	 -0.363434783
O	 0.966401824	 -0.910379050	 -0.572071328
H	 1.528219852	 -0.497249388	 -1.244593056
C	 -0.670042530	 -0.394343274	 1.041641811
H	 -1.194804920	 0.442242992	 1.487321397
H	 -1.380965932	 -1.087621370	 0.597362118
H	 -0.109447868	 -0.936844693	 1.799212693
C	 -2.975910550	 0.276482474	 -2.397922354
H	 -3.776589687	 0.936673082	 -2.731184280
H	 -2.120607959	 0.900613826	 -2.139938463
H	 -2.696534858	 -0.357087195	 -3.238966283
C	 -3.423566672	 -0.548675600	 -1.198065176
H	 -2.630006441	 -1.243447003	 -0.911717661
H	 -4.283755393	 -1.164116246	 -1.472218728
C	 -3.790308278	 0.317448977	 0.000000000
H	 -2.922481667	 0.915265764	 0.293346540
H	 -4.563919853	 1.032151521	 -0.295801016
C	 -4.285676296	 -0.486410538	 1.194835996
H	 -3.535064017	 -1.233487761	 1.464919296
H	 -5.178500886	 -1.045254460	 0.905311495
C	 -4.594296065	 0.390293646	 2.401249980
H	 -5.360698507	 1.125876283	 2.157758125
H	 -4.950210439	 -0.196178604	 3.246927873
H	 -3.705670193	 0.935055345	 2.720390018
