25
0  1  0  1  0  1   8  17 -2.59433 -2.41007 -2.49246 -2.67673 -2.57730 -2.63522  0.80349  0.79902  0.79799 -2.57679 -0.85677  2.14840 -0.30068 -3.56774
C	 -0.535136496	 -0.301249695	 4.385171161
O	 -0.957750436	 -1.416429942	 4.188024582
O	 -1.348828854	 0.757715823	 4.617760641
H	 -2.249590963	 0.403335285	 4.577224901
C	 0.905130567	 0.108416386	 4.402376544
H	 1.530953632	 -0.761764559	 4.244221385
H	 1.081167981	 0.842690020	 3.619251964
H	 1.142441814	 0.577717340	 5.354178935
C	 -2.275344982	 -0.135074939	 0.831333870
H	 -2.490717763	 -0.727926686	 -0.057566351
H	 -2.226323818	 -0.818446408	 1.678823407
H	 -3.112025664	 0.544943419	 0.987400079
C	 -0.961698124	 0.619277891	 0.669399201
H	 -0.788699202	 1.250431809	 1.544702661
H	 -1.026176875	 1.295445240	 -0.186458382
C	 0.226502174	 -0.314710314	 0.479985794
H	 0.309444388	 -0.975139115	 1.348037935
H	 0.039150560	 -0.965998753	 -0.378789833
C	 1.543001678	 0.421174521	 0.268999505
H	 1.711638628	 1.107771769	 1.102446539
H	 1.466094657	 1.043743312	 -0.625293582
C	 2.727576325	 -0.526860908	 0.137459311
H	 2.588741553	 -1.203213913	 -0.705757340
H	 3.661501004	 0.011693084	 -0.015968628
H	 2.835194072	 -1.137409942	 1.034075121
