25
0  1  0  1  0  1   8  17 -1.53641 -1.43097 -1.46155 -1.56699 -1.51872 -1.54695  0.66677  0.66316  0.66237 -1.54557 -0.23705  1.10116 -0.13781 -2.27188
C	 -3.841826084	 2.090737880	 0.014855704
O	 -3.217417134	 3.058287084	 0.382358496
O	 -4.637265222	 1.375336846	 0.847369384
H	 -4.560853462	 1.808261539	 1.710699299
C	 -3.850672355	 1.517064031	 -1.368369366
H	 -3.231792350	 2.125760106	 -2.016720404
H	 -3.471740101	 0.497758801	 -1.339073567
H	 -4.870406875	 1.479381350	 -1.744147664
C	 -0.837435005	 0.276482474	 2.397922354
H	 -0.036755868	 0.936673082	 2.731184280
H	 -1.692737596	 0.900613826	 2.139938463
H	 -1.116810697	 -0.357087195	 3.238966283
C	 -0.389778883	 -0.548675600	 1.198065176
H	 -1.183339114	 -1.243447003	 0.911717661
H	 0.470409838	 -1.164116246	 1.472218728
C	 -0.023037277	 0.317448977	 0.000000000
H	 -0.890863888	 0.915265764	 -0.293346540
H	 0.750574297	 1.032151521	 0.295801016
C	 0.472330741	 -0.486410538	 -1.194835996
H	 -0.278281539	 -1.233487761	 -1.464919296
H	 1.365155331	 -1.045254460	 -0.905311495
C	 0.780950510	 0.390293646	 -2.401249980
H	 1.547352952	 1.125876283	 -2.157758125
H	 1.136864884	 -0.196178604	 -3.246927873
H	 -0.107675363	 0.935055345	 -2.720390018
