25
0  1  0  1  0  1   8  17 -1.69193 -1.59051 -1.62148 -1.72289 -1.67657 -1.70371  0.36695  0.36427  0.36343 -1.69128 -0.27957  0.80418 -0.10541 -2.11048
C	 0.761011858	 0.096533629	 -0.014890821
O	 1.286729574	 1.121062243	 -0.382393613
O	 0.539175959	 -0.950037389	 -0.847404501
H	 0.875893860	 -0.667400518	 -1.710734416
C	 0.268618867	 -0.197964392	 1.368334249
H	 0.486325129	 0.642349451	 2.016685287
H	 -0.803591482	 -0.379452048	 1.339038450
H	 0.745851969	 -1.099921732	 1.744112547
C	 -2.975910550	 0.276482474	 -2.397922354
H	 -3.776589687	 0.936673082	 -2.731184280
H	 -2.120607959	 0.900613826	 -2.139938463
H	 -2.696534858	 -0.357087195	 -3.238966283
C	 -3.423566672	 -0.548675600	 -1.198065176
H	 -2.630006441	 -1.243447003	 -0.911717661
H	 -4.283755393	 -1.164116246	 -1.472218728
C	 -3.790308278	 0.317448977	 0.000000000
H	 -2.922481667	 0.915265764	 0.293346540
H	 -4.563919853	 1.032151521	 -0.295801016
C	 -4.285676296	 -0.486410538	 1.194835996
H	 -3.535064017	 -1.233487761	 1.464919296
H	 -5.178500886	 -1.045254460	 0.905311495
C	 -4.594296065	 0.390293646	 2.401249980
H	 -5.360698507	 1.125876283	 2.157758125
H	 -4.950210439	 -0.196178604	 3.246927873
H	 -3.705670193	 0.935055345	 2.720390018
