25
0  1  0  1  0  1   8  17 -2.81025 -2.44695 -2.61610 -2.97940 -2.74663 -2.88328  3.06690  3.06051  3.05557 -2.68054 -2.56747  6.94282 -0.80121 -6.25469
C	 -0.462066778	 -0.282279713	 4.011369795
O	 -0.884680718	 -1.397459960	 3.814223216
O	 -1.275759136	 0.776685805	 4.243959275
H	 -2.176521245	 0.422305267	 4.203423535
C	 0.978200285	 0.127386368	 4.028575178
H	 1.604023350	 -0.742794577	 3.870420019
H	 1.154237699	 0.861660002	 3.245450598
H	 1.215511532	 0.596687322	 4.980377569
C	 -2.275344982	 -0.135074939	 0.831333870
H	 -2.490717763	 -0.727926686	 -0.057566351
H	 -2.226323818	 -0.818446408	 1.678823407
H	 -3.112025664	 0.544943419	 0.987400079
C	 -0.961698124	 0.619277891	 0.669399201
H	 -0.788699202	 1.250431809	 1.544702661
H	 -1.026176875	 1.295445240	 -0.186458382
C	 0.226502174	 -0.314710314	 0.479985794
H	 0.309444388	 -0.975139115	 1.348037935
H	 0.039150560	 -0.965998753	 -0.378789833
C	 1.543001678	 0.421174521	 0.268999505
H	 1.711638628	 1.107771769	 1.102446539
H	 1.466094657	 1.043743312	 -0.625293582
C	 2.727576325	 -0.526860908	 0.137459311
H	 2.588741553	 -1.203213913	 -0.705757340
H	 3.661501004	 0.011693084	 -0.015968628
H	 2.835194072	 -1.137409942	 1.034075121
