25
0  1  0  1  0  1   8  17  5.64862  6.72088  6.03271  4.96045  5.81536  5.30552 19.32437 19.30883 19.27186  6.26435 -13.63570 38.84946 -3.93840 -15.01101
C	 -0.352462200	 -0.253824741	 3.450667748
O	 -0.775076140	 -1.369004988	 3.253521169
O	 -1.166154558	 0.805140777	 3.683257228
H	 -2.066916667	 0.450760239	 3.642721488
C	 1.087804863	 0.155841340	 3.467873131
H	 1.713627928	 -0.714339605	 3.309717972
H	 1.263842277	 0.890114974	 2.684748551
H	 1.325116110	 0.625142294	 4.419675522
C	 -2.275344982	 -0.135074939	 0.831333870
H	 -2.490717763	 -0.727926686	 -0.057566351
H	 -2.226323818	 -0.818446408	 1.678823407
H	 -3.112025664	 0.544943419	 0.987400079
C	 -0.961698124	 0.619277891	 0.669399201
H	 -0.788699202	 1.250431809	 1.544702661
H	 -1.026176875	 1.295445240	 -0.186458382
C	 0.226502174	 -0.314710314	 0.479985794
H	 0.309444388	 -0.975139115	 1.348037935
H	 0.039150560	 -0.965998753	 -0.378789833
C	 1.543001678	 0.421174521	 0.268999505
H	 1.711638628	 1.107771769	 1.102446539
H	 1.466094657	 1.043743312	 -0.625293582
C	 2.727576325	 -0.526860908	 0.137459311
H	 2.588741553	 -1.203213913	 -0.705757340
H	 3.661501004	 0.011693084	 -0.015968628
H	 2.835194072	 -1.137409942	 1.034075121
