25
0  1  0  1  0  1   8  17 -0.96370 -0.91381 -0.92045 -0.97035 -0.94547 -0.95974  0.08982  0.08793  0.08820 -0.97031 -0.15988  0.35620 -0.06826 -1.09838
C	 -5.047746451	 0.106973818	 2.106345097
O	 -4.814649438	 1.257100483	 2.396122146
O	 -4.918291230	 -0.910301220	 2.992908085
H	 -4.616779344	 -0.497171558	 3.815717634
C	 -5.497585627	 -0.394265444	 0.768849133
H	 -5.621174274	 0.442320822	 0.091551779
H	 -4.757366425	 -1.087543540	 0.375311252
H	 -6.433958586	 -0.936766863	 0.875552910
C	 -0.837435005	 0.276482474	 2.397922354
H	 -0.036755868	 0.936673082	 2.731184280
H	 -1.692737596	 0.900613826	 2.139938463
H	 -1.116810697	 -0.357087195	 3.238966283
C	 -0.389778883	 -0.548675600	 1.198065176
H	 -1.183339114	 -1.243447003	 0.911717661
H	 0.470409838	 -1.164116246	 1.472218728
C	 -0.023037277	 0.317448977	 0.000000000
H	 -0.890863888	 0.915265764	 -0.293346540
H	 0.750574297	 1.032151521	 0.295801016
C	 0.472330741	 -0.486410538	 -1.194835996
H	 -0.278281539	 -1.233487761	 -1.464919296
H	 1.365155331	 -1.045254460	 -0.905311495
C	 0.780950510	 0.390293646	 -2.401249980
H	 1.547352952	 1.125876283	 -2.157758125
H	 1.136864884	 -0.196178604	 -3.246927873
H	 -0.107675363	 0.935055345	 -2.720390018
