25
0  1  0  1  0  1   8  17 -2.37387 -2.16432 -2.17297 -2.38252 -2.25410 -2.32950  0.88905  0.88136  0.87860 -2.32573 -1.43359  3.10126 -0.45301 -3.54039
C	 0.243862287	 0.106934903	 -0.008937539
O	 0.010765275	 1.257061568	 -0.298714588
O	 0.114407067	 -0.910340135	 -0.895500527
H	 -0.187104820	 -0.497210473	 -1.718310076
C	 0.693701463	 -0.394304359	 1.328558425
H	 0.817290111	 0.442281907	 2.005855779
H	 -0.046517738	 -1.087582455	 1.722096305
H	 1.630074423	 -0.936805778	 1.221854648
C	 -2.975910550	 0.276482474	 -2.397922354
H	 -3.776589687	 0.936673082	 -2.731184280
H	 -2.120607959	 0.900613826	 -2.139938463
H	 -2.696534858	 -0.357087195	 -3.238966283
C	 -3.423566672	 -0.548675600	 -1.198065176
H	 -2.630006441	 -1.243447003	 -0.911717661
H	 -4.283755393	 -1.164116246	 -1.472218728
C	 -3.790308278	 0.317448977	 0.000000000
H	 -2.922481667	 0.915265764	 0.293346540
H	 -4.563919853	 1.032151521	 -0.295801016
C	 -4.285676296	 -0.486410538	 1.194835996
H	 -3.535064017	 -1.233487761	 1.464919296
H	 -5.178500886	 -1.045254460	 0.905311495
C	 -4.594296065	 0.390293646	 2.401249980
H	 -5.360698507	 1.125876283	 2.157758125
H	 -4.950210439	 -0.196178604	 3.246927873
H	 -3.705670193	 0.935055345	 2.720390018
