25
0  1  0  1  0  1   8  17 -1.32229 -1.23800 -1.25223 -1.33652 -1.30014 -1.32132  0.37503  0.37445  0.37411 -1.31689 -0.20703  0.75462 -0.12018 -1.74430
C	 -4.200243415	 0.106954361	 -1.985246870
O	 -4.334649194	 1.257081026	 -1.638490411
O	 -4.903301874	 -0.910320677	 -1.429853866
H	 -5.465119903	 -0.497191015	 -0.757332139
C	 -3.266857521	 -0.394284901	 -3.043567006
H	 -2.742095130	 0.442301365	 -3.489246591
H	 -2.555934118	 -1.087562997	 -2.599287313
H	 -3.827452182	 -0.936786320	 -3.801137888
C	 -0.837435005	 0.276482474	 2.397922354
H	 -0.036755868	 0.936673082	 2.731184280
H	 -1.692737596	 0.900613826	 2.139938463
H	 -1.116810697	 -0.357087195	 3.238966283
C	 -0.389778883	 -0.548675600	 1.198065176
H	 -1.183339114	 -1.243447003	 0.911717661
H	 0.470409838	 -1.164116246	 1.472218728
C	 -0.023037277	 0.317448977	 0.000000000
H	 -0.890863888	 0.915265764	 -0.293346540
H	 0.750574297	 1.032151521	 0.295801016
C	 0.472330741	 -0.486410538	 -1.194835996
H	 -0.278281539	 -1.233487761	 -1.464919296
H	 1.365155331	 -1.045254460	 -0.905311495
C	 0.780950510	 0.390293646	 -2.401249980
H	 1.547352952	 1.125876283	 -2.157758125
H	 1.136864884	 -0.196178604	 -3.246927873
H	 -0.107675363	 0.935055345	 -2.720390018
