25
0  1  0  1  0  1   8  17 -1.61823 -1.53738 -1.58130 -1.66215 -1.62034 -1.64434  0.03381  0.03318  0.03357 -1.66920 -0.48558  0.87568 -0.24019 -1.81911
C	 0.779563157	 0.088752049	 -0.014890821
O	 0.155154208	 1.056301254	 -0.382393613
O	 1.575002296	 -0.626648984	 -0.847404501
H	 1.498590535	 -0.193724292	 -1.710734416
C	 0.788409428	 -0.484921800	 1.368334249
H	 0.169529424	 0.123774275	 2.016685287
H	 0.409477175	 -1.504227029	 1.339038450
H	 1.808143949	 -0.522604481	 1.744112547
C	 -2.975910550	 0.276482474	 -2.397922354
H	 -3.776589687	 0.936673082	 -2.731184280
H	 -2.120607959	 0.900613826	 -2.139938463
H	 -2.696534858	 -0.357087195	 -3.238966283
C	 -3.423566672	 -0.548675600	 -1.198065176
H	 -2.630006441	 -1.243447003	 -0.911717661
H	 -4.283755393	 -1.164116246	 -1.472218728
C	 -3.790308278	 0.317448977	 0.000000000
H	 -2.922481667	 0.915265764	 0.293346540
H	 -4.563919853	 1.032151521	 -0.295801016
C	 -4.285676296	 -0.486410538	 1.194835996
H	 -3.535064017	 -1.233487761	 1.464919296
H	 -5.178500886	 -1.045254460	 0.905311495
C	 -4.594296065	 0.390293646	 2.401249980
H	 -5.360698507	 1.125876283	 2.157758125
H	 -4.950210439	 -0.196178604	 3.246927873
H	 -3.705670193	 0.935055345	 2.720390018
