25
0  1  0  1  0  1   8  17 37.65922 39.86654 38.06457 35.85725 37.77735 36.63448 61.88899 61.86524 61.78745 37.69708 -41.00438 118.36438 -12.09721 -27.56571
C	 -0.279392481	 -0.234854760	 3.076866383
O	 -0.702006421	 -1.350035007	 2.879719804
O	 -1.093084839	 0.824110758	 3.309455863
H	 -1.993846948	 0.469730220	 3.268920123
C	 1.160874582	 0.174811321	 3.094071766
H	 1.786697647	 -0.695369624	 2.935916607
H	 1.336911996	 0.909084955	 2.310947186
H	 1.398185829	 0.644112275	 4.045874157
C	 -2.275344982	 -0.135074939	 0.831333870
H	 -2.490717763	 -0.727926686	 -0.057566351
H	 -2.226323818	 -0.818446408	 1.678823407
H	 -3.112025664	 0.544943419	 0.987400079
C	 -0.961698124	 0.619277891	 0.669399201
H	 -0.788699202	 1.250431809	 1.544702661
H	 -1.026176875	 1.295445240	 -0.186458382
C	 0.226502174	 -0.314710314	 0.479985794
H	 0.309444388	 -0.975139115	 1.348037935
H	 0.039150560	 -0.965998753	 -0.378789833
C	 1.543001678	 0.421174521	 0.268999505
H	 1.711638628	 1.107771769	 1.102446539
H	 1.466094657	 1.043743312	 -0.625293582
C	 2.727576325	 -0.526860908	 0.137459311
H	 2.588741553	 -1.203213913	 -0.705757340
H	 3.661501004	 0.011693084	 -0.015968628
H	 2.835194072	 -1.137409942	 1.034075121
