25
0  1  0  1  0  1   8  17 28.86451 30.46369 29.14104 27.54186 28.88494 28.08468 48.26786 48.25283 48.19644 28.28169 -28.03695 85.15966 -7.28152 -21.55951
C	 -0.642545421	 0.106818157	 -0.016570030
O	 -0.508139641	 1.256944822	 -0.363326488
O	 0.060513039	 -0.910456881	 -0.571963033
H	 0.622331067	 -0.497327219	 -1.244484761
C	 -1.575931315	 -0.394421105	 1.041750106
H	 -2.100693705	 0.442165161	 1.487429692
H	 -2.286854717	 -1.087699201	 0.597470413
H	 -1.015336653	 -0.936922524	 1.799320988
C	 -2.975910550	 0.276482474	 -2.397922354
H	 -3.776589687	 0.936673082	 -2.731184280
H	 -2.120607959	 0.900613826	 -2.139938463
H	 -2.696534858	 -0.357087195	 -3.238966283
C	 -3.423566672	 -0.548675600	 -1.198065176
H	 -2.630006441	 -1.243447003	 -0.911717661
H	 -4.283755393	 -1.164116246	 -1.472218728
C	 -3.790308278	 0.317448977	 0.000000000
H	 -2.922481667	 0.915265764	 0.293346540
H	 -4.563919853	 1.032151521	 -0.295801016
C	 -4.285676296	 -0.486410538	 1.194835996
H	 -3.535064017	 -1.233487761	 1.464919296
H	 -5.178500886	 -1.045254460	 0.905311495
C	 -4.594296065	 0.390293646	 2.401249980
H	 -5.360698507	 1.125876283	 2.157758125
H	 -4.950210439	 -0.196178604	 3.246927873
H	 -3.705670193	 0.935055345	 2.720390018
