25
0  1  0  1  0  1   8  17 -1.28647 -1.21167 -1.23707 -1.31187 -1.28024 -1.29875  0.37910  0.37628  0.37575 -1.30198 -0.08947  0.58193 -0.08556 -1.70889
C	 -4.027635532	 2.186092105	 0.014890821
O	 -3.403226582	 3.153641309	 0.382393613
O	 -4.823074670	 1.470691071	 0.847404501
H	 -4.746662910	 1.903615764	 1.710734416
C	 -4.036481803	 1.612418256	 -1.368334249
H	 -3.417601798	 2.221114331	 -2.016685287
H	 -3.657549549	 0.593113026	 -1.339038450
H	 -5.056216323	 1.574735575	 -1.744112547
C	 -0.837435005	 0.276482474	 2.397922354
H	 -0.036755868	 0.936673082	 2.731184280
H	 -1.692737596	 0.900613826	 2.139938463
H	 -1.116810697	 -0.357087195	 3.238966283
C	 -0.389778883	 -0.548675600	 1.198065176
H	 -1.183339114	 -1.243447003	 0.911717661
H	 0.470409838	 -1.164116246	 1.472218728
C	 -0.023037277	 0.317448977	 0.000000000
H	 -0.890863888	 0.915265764	 -0.293346540
H	 0.750574297	 1.032151521	 0.295801016
C	 0.472330741	 -0.486410538	 -1.194835996
H	 -0.278281539	 -1.233487761	 -1.464919296
H	 1.365155331	 -1.045254460	 -0.905311495
C	 0.780950510	 0.390293646	 -2.401249980
H	 1.547352952	 1.125876283	 -2.157758125
H	 1.136864884	 -0.196178604	 -3.246927873
H	 -0.107675363	 0.935055345	 -2.720390018
