25
0  1  0  1  0  1   8  17 -1.68999 -1.52965 -1.56214 -1.72248 -1.64163 -1.68886  1.23673  1.23392  1.23277 -1.64770 -0.61037  2.25517 -0.29468 -2.99782
C	 0.716287756	 0.106934903	 -0.016732473
O	 0.850693536	 1.257061568	 -0.363488931
O	 1.419346216	 -0.910340135	 -0.572125476
H	 1.981164244	 -0.497210473	 -1.244647204
C	 -0.217098138	 -0.394304359	 1.041587663
H	 -0.741860528	 0.442281907	 1.487267249
H	 -0.928021540	 -1.087582455	 0.597307970
H	 0.343496524	 -0.936805778	 1.799158545
C	 -2.975910550	 0.276482474	 -2.397922354
H	 -3.776589687	 0.936673082	 -2.731184280
H	 -2.120607959	 0.900613826	 -2.139938463
H	 -2.696534858	 -0.357087195	 -3.238966283
C	 -3.423566672	 -0.548675600	 -1.198065176
H	 -2.630006441	 -1.243447003	 -0.911717661
H	 -4.283755393	 -1.164116246	 -1.472218728
C	 -3.790308278	 0.317448977	 0.000000000
H	 -2.922481667	 0.915265764	 0.293346540
H	 -4.563919853	 1.032151521	 -0.295801016
C	 -4.285676296	 -0.486410538	 1.194835996
H	 -3.535064017	 -1.233487761	 1.464919296
H	 -5.178500886	 -1.045254460	 0.905311495
C	 -4.594296065	 0.390293646	 2.401249980
H	 -5.360698507	 1.125876283	 2.157758125
H	 -4.950210439	 -0.196178604	 3.246927873
H	 -3.705670193	 0.935055345	 2.720390018
