25
0  1  0  1  0  1   8  17 -2.11319 -1.93967 -2.02504 -2.19856 -2.09040 -2.15394  0.85271  0.85256  0.85018 -2.14417 -1.37127  3.08876 -0.58216 -3.27950
C	 0.356555791	 0.088710876	 -0.014820588
O	 -0.267853158	 1.056260081	 -0.382323380
O	 1.151994930	 -0.626690157	 -0.847334268
H	 1.075583169	 -0.193765465	 -1.710664183
C	 0.365402062	 -0.484962973	 1.368404482
H	 -0.253477942	 0.123733102	 2.016755520
H	 -0.013530191	 -1.504268202	 1.339108683
H	 1.385136583	 -0.522645654	 1.744182780
C	 -2.975910550	 0.276482474	 -2.397922354
H	 -3.776589687	 0.936673082	 -2.731184280
H	 -2.120607959	 0.900613826	 -2.139938463
H	 -2.696534858	 -0.357087195	 -3.238966283
C	 -3.423566672	 -0.548675600	 -1.198065176
H	 -2.630006441	 -1.243447003	 -0.911717661
H	 -4.283755393	 -1.164116246	 -1.472218728
C	 -3.790308278	 0.317448977	 0.000000000
H	 -2.922481667	 0.915265764	 0.293346540
H	 -4.563919853	 1.032151521	 -0.295801016
C	 -4.285676296	 -0.486410538	 1.194835996
H	 -3.535064017	 -1.233487761	 1.464919296
H	 -5.178500886	 -1.045254460	 0.905311495
C	 -4.594296065	 0.390293646	 2.401249980
H	 -5.360698507	 1.125876283	 2.157758125
H	 -4.950210439	 -0.196178604	 3.246927873
H	 -3.705670193	 0.935055345	 2.720390018
