25
0  1  0  1  0  1   8  17  7.32125  7.97751  7.66408  7.00782  7.52479  7.21618 16.81148 16.80370 16.78061  7.57777 -7.75393 29.19681 -3.75236 -10.11275
C	 -3.200230551	 0.106857072	 -1.508714045
O	 -3.334636330	 1.256983737	 -1.161957586
O	 -3.903289010	 -0.910417966	 -0.953321041
H	 -4.465107039	 -0.497288304	 -0.280799314
C	 -2.266844657	 -0.394382190	 -2.567034181
H	 -1.742082266	 0.442204076	 -3.012713766
H	 -1.555921254	 -1.087660286	 -2.122754488
H	 -2.827439318	 -0.936883609	 -3.324605063
C	 -0.837435005	 0.276482474	 2.397922354
H	 -0.036755868	 0.936673082	 2.731184280
H	 -1.692737596	 0.900613826	 2.139938463
H	 -1.116810697	 -0.357087195	 3.238966283
C	 -0.389778883	 -0.548675600	 1.198065176
H	 -1.183339114	 -1.243447003	 0.911717661
H	 0.470409838	 -1.164116246	 1.472218728
C	 -0.023037277	 0.317448977	 0.000000000
H	 -0.890863888	 0.915265764	 -0.293346540
H	 0.750574297	 1.032151521	 0.295801016
C	 0.472330741	 -0.486410538	 -1.194835996
H	 -0.278281539	 -1.233487761	 -1.464919296
H	 1.365155331	 -1.045254460	 -0.905311495
C	 0.780950510	 0.390293646	 -2.401249980
H	 1.547352952	 1.125876283	 -2.157758125
H	 1.136864884	 -0.196178604	 -3.246927873
H	 -0.107675363	 0.935055345	 -2.720390018
