25
0  1  0  1  0  1   8  17 -0.85198 -0.54928 -0.61389 -0.91659 -0.69852 -0.82963  3.41252  3.40674  3.39481 -0.63770 -3.01026  7.88836 -0.92067 -4.59513
C	 -4.127441827	 0.106895988	 1.724875537
O	 -3.894344814	 1.257022653	 2.014652586
O	 -3.997986606	 -0.910379050	 2.611438525
H	 -3.696474720	 -0.497249388	 3.434248074
C	 -4.577281003	 -0.394343274	 0.387379573
H	 -4.700869650	 0.442242992	 -0.289917781
H	 -3.837061801	 -1.087621370	 -0.006158308
H	 -5.513653962	 -0.936844693	 0.494083350
C	 -0.837435005	 0.276482474	 2.397922354
H	 -0.036755868	 0.936673082	 2.731184280
H	 -1.692737596	 0.900613826	 2.139938463
H	 -1.116810697	 -0.357087195	 3.238966283
C	 -0.389778883	 -0.548675600	 1.198065176
H	 -1.183339114	 -1.243447003	 0.911717661
H	 0.470409838	 -1.164116246	 1.472218728
C	 -0.023037277	 0.317448977	 0.000000000
H	 -0.890863888	 0.915265764	 -0.293346540
H	 0.750574297	 1.032151521	 0.295801016
C	 0.472330741	 -0.486410538	 -1.194835996
H	 -0.278281539	 -1.233487761	 -1.464919296
H	 1.365155331	 -1.045254460	 -0.905311495
C	 0.780950510	 0.390293646	 -2.401249980
H	 1.547352952	 1.125876283	 -2.157758125
H	 1.136864884	 -0.196178604	 -3.246927873
H	 -0.107675363	 0.935055345	 -2.720390018
