25
0  1  0  1  0  1   8  17 -1.77459 -1.67400 -1.67662 -1.77721 -1.72498 -1.75523  0.05834  0.05311  0.05297 -1.77692 -0.51728  0.85630 -0.16211 -1.95383
C	 0.650975970	 0.106973818	 -0.009005041
O	 0.417878958	 1.257100483	 -0.298782090
O	 0.521520750	 -0.910301220	 -0.895568029
H	 0.220008863	 -0.497171558	 -1.718377578
C	 1.100815146	 -0.394265444	 1.328490923
H	 1.224403794	 0.442320822	 2.005788277
H	 0.360595945	 -1.087543540	 1.722028803
H	 2.037188106	 -0.936766863	 1.221787146
C	 -2.975910550	 0.276482474	 -2.397922354
H	 -3.776589687	 0.936673082	 -2.731184280
H	 -2.120607959	 0.900613826	 -2.139938463
H	 -2.696534858	 -0.357087195	 -3.238966283
C	 -3.423566672	 -0.548675600	 -1.198065176
H	 -2.630006441	 -1.243447003	 -0.911717661
H	 -4.283755393	 -1.164116246	 -1.472218728
C	 -3.790308278	 0.317448977	 0.000000000
H	 -2.922481667	 0.915265764	 0.293346540
H	 -4.563919853	 1.032151521	 -0.295801016
C	 -4.285676296	 -0.486410538	 1.194835996
H	 -3.535064017	 -1.233487761	 1.464919296
H	 -5.178500886	 -1.045254460	 0.905311495
C	 -4.594296065	 0.390293646	 2.401249980
H	 -5.360698507	 1.125876283	 2.157758125
H	 -4.950210439	 -0.196178604	 3.246927873
H	 -3.705670193	 0.935055345	 2.720390018
