25
0  1  0  1  0  1   8  17 40.37905 42.54264 41.00323 38.83963 40.75746 39.61252 61.26636 61.23705 61.15125 40.28342 -46.11058 124.00698 -13.65988 -23.95310
C	 -0.977478761	 0.106818157	 -0.008735032
O	 -1.210575773	 1.256944822	 -0.298512081
O	 -1.106933981	 -0.910456881	 -0.895298020
H	 -1.408445868	 -0.497327219	 -1.718107569
C	 -0.527639585	 -0.394421105	 1.328760932
H	 -0.404050937	 0.442165161	 2.006058286
H	 -1.267858786	 -1.087699201	 1.722298812
H	 0.408733375	 -0.936922524	 1.222057155
C	 -2.975910550	 0.276482474	 -2.397922354
H	 -3.776589687	 0.936673082	 -2.731184280
H	 -2.120607959	 0.900613826	 -2.139938463
H	 -2.696534858	 -0.357087195	 -3.238966283
C	 -3.423566672	 -0.548675600	 -1.198065176
H	 -2.630006441	 -1.243447003	 -0.911717661
H	 -4.283755393	 -1.164116246	 -1.472218728
C	 -3.790308278	 0.317448977	 0.000000000
H	 -2.922481667	 0.915265764	 0.293346540
H	 -4.563919853	 1.032151521	 -0.295801016
C	 -4.285676296	 -0.486410538	 1.194835996
H	 -3.535064017	 -1.233487761	 1.464919296
H	 -5.178500886	 -1.045254460	 0.905311495
C	 -4.594296065	 0.390293646	 2.401249980
H	 -5.360698507	 1.125876283	 2.157758125
H	 -4.950210439	 -0.196178604	 3.246927873
H	 -3.705670193	 0.935055345	 2.720390018
