25
0  1  0  1  0  1   8  17 -0.95689 -0.68132 -0.76226 -1.03784 -0.86056 -0.96433  4.02831  4.02613  4.02310 -0.90932 -2.19202  7.48590 -0.91821 -5.28500
C	 -3.532095875	 -1.619527509	 0.014750355
O	 -4.057813590	 -0.594998895	 0.382253147
O	 -3.310259975	 -2.666098527	 0.847264035
H	 -3.646977877	 -2.383461656	 1.710593950
C	 -3.039702884	 -1.914025530	 -1.368474715
H	 -3.257409145	 -1.073711686	 -2.016825753
H	 -1.967492534	 -2.095513186	 -1.339178916
H	 -3.516935985	 -2.815982870	 -1.744253013
C	 -0.837435005	 0.276482474	 2.397922354
H	 -0.036755868	 0.936673082	 2.731184280
H	 -1.692737596	 0.900613826	 2.139938463
H	 -1.116810697	 -0.357087195	 3.238966283
C	 -0.389778883	 -0.548675600	 1.198065176
H	 -1.183339114	 -1.243447003	 0.911717661
H	 0.470409838	 -1.164116246	 1.472218728
C	 -0.023037277	 0.317448977	 0.000000000
H	 -0.890863888	 0.915265764	 -0.293346540
H	 0.750574297	 1.032151521	 0.295801016
C	 0.472330741	 -0.486410538	 -1.194835996
H	 -0.278281539	 -1.233487761	 -1.464919296
H	 1.365155331	 -1.045254460	 -0.905311495
C	 0.780950510	 0.390293646	 -2.401249980
H	 1.547352952	 1.125876283	 -2.157758125
H	 1.136864884	 -0.196178604	 -3.246927873
H	 -0.107675363	 0.935055345	 -2.720390018
