25
0  1  0  1  0  1   8  17 -1.35780 -1.04991 -1.15555 -1.46344 -1.27076 -1.38368  3.91050  3.90710  3.90348 -1.24640 -2.09059  7.07169 -0.67602 -5.55148
C	 -3.284397742	 1.804675203	 0.014750355
O	 -2.659988792	 2.772224407	 0.382253147
O	 -4.079836880	 1.089274169	 0.847264035
H	 -4.003425120	 1.522198862	 1.710593950
C	 -3.293244013	 1.231001354	 -1.368474715
H	 -2.674364008	 1.839697429	 -2.016825753
H	 -2.914311759	 0.211696124	 -1.339178916
H	 -4.312978533	 1.193318673	 -1.744253013
C	 -0.837435005	 0.276482474	 2.397922354
H	 -0.036755868	 0.936673082	 2.731184280
H	 -1.692737596	 0.900613826	 2.139938463
H	 -1.116810697	 -0.357087195	 3.238966283
C	 -0.389778883	 -0.548675600	 1.198065176
H	 -1.183339114	 -1.243447003	 0.911717661
H	 0.470409838	 -1.164116246	 1.472218728
C	 -0.023037277	 0.317448977	 0.000000000
H	 -0.890863888	 0.915265764	 -0.293346540
H	 0.750574297	 1.032151521	 0.295801016
C	 0.472330741	 -0.486410538	 -1.194835996
H	 -0.278281539	 -1.233487761	 -1.464919296
H	 1.365155331	 -1.045254460	 -0.905311495
C	 0.780950510	 0.390293646	 -2.401249980
H	 1.547352952	 1.125876283	 -2.157758125
H	 1.136864884	 -0.196178604	 -3.246927873
H	 -0.107675363	 0.935055345	 -2.720390018
