25
0  1  0  1  0  1   8  17 -2.01716 -1.87095 -1.91225 -2.05847 -1.98407 -2.02771  0.71651  0.71277  0.71127 -1.99897 -0.54572  1.55001 -0.18273 -2.82052
C	 0.555197099	 0.096519719	 -0.014855704
O	 1.080914815	 1.121048333	 -0.382358496
O	 0.333361200	 -0.950051299	 -0.847369384
H	 0.670079101	 -0.667414428	 -1.710699299
C	 0.062804108	 -0.197978302	 1.368369366
H	 0.280510370	 0.642335541	 2.016720404
H	 -1.009406241	 -0.379465958	 1.339073567
H	 0.540037210	 -1.099935642	 1.744147664
C	 -2.975910550	 0.276482474	 -2.397922354
H	 -3.776589687	 0.936673082	 -2.731184280
H	 -2.120607959	 0.900613826	 -2.139938463
H	 -2.696534858	 -0.357087195	 -3.238966283
C	 -3.423566672	 -0.548675600	 -1.198065176
H	 -2.630006441	 -1.243447003	 -0.911717661
H	 -4.283755393	 -1.164116246	 -1.472218728
C	 -3.790308278	 0.317448977	 0.000000000
H	 -2.922481667	 0.915265764	 0.293346540
H	 -4.563919853	 1.032151521	 -0.295801016
C	 -4.285676296	 -0.486410538	 1.194835996
H	 -3.535064017	 -1.233487761	 1.464919296
H	 -5.178500886	 -1.045254460	 0.905311495
C	 -4.594296065	 0.390293646	 2.401249980
H	 -5.360698507	 1.125876283	 2.157758125
H	 -4.950210439	 -0.196178604	 3.246927873
H	 -3.705670193	 0.935055345	 2.720390018
