25
0  1  0  1  0  1   8  17 -2.11498 -1.97069 -1.97304 -2.11733 -2.03620 -2.08351  0.32248  0.31617  0.31522 -2.10151 -0.84738  1.63513 -0.26840 -2.62086
C	 0.447419128	 0.106954361	 -0.008971290
O	 0.214322116	 1.257081026	 -0.298748339
O	 0.317963908	 -0.910320677	 -0.895534278
H	 0.016452021	 -0.497191015	 -1.718343827
C	 0.897258304	 -0.394284901	 1.328524674
H	 1.020846952	 0.442301365	 2.005822028
H	 0.157039103	 -1.087562997	 1.722062554
H	 1.833631264	 -0.936786320	 1.221820897
C	 -2.975910550	 0.276482474	 -2.397922354
H	 -3.776589687	 0.936673082	 -2.731184280
H	 -2.120607959	 0.900613826	 -2.139938463
H	 -2.696534858	 -0.357087195	 -3.238966283
C	 -3.423566672	 -0.548675600	 -1.198065176
H	 -2.630006441	 -1.243447003	 -0.911717661
H	 -4.283755393	 -1.164116246	 -1.472218728
C	 -3.790308278	 0.317448977	 0.000000000
H	 -2.922481667	 0.915265764	 0.293346540
H	 -4.563919853	 1.032151521	 -0.295801016
C	 -4.285676296	 -0.486410538	 1.194835996
H	 -3.535064017	 -1.233487761	 1.464919296
H	 -5.178500886	 -1.045254460	 0.905311495
C	 -4.594296065	 0.390293646	 2.401249980
H	 -5.360698507	 1.125876283	 2.157758125
H	 -4.950210439	 -0.196178604	 3.246927873
H	 -3.705670193	 0.935055345	 2.720390018
