25
0  1  0  1  0  1   8  17 47.82900 49.36953 48.06382 46.52328 47.87526 47.06875 67.72327 67.71420 67.65520 46.09783 -27.09305 111.86993 -16.18708 -22.49196
C	 -2.800225406	 0.106818157	 -1.318100915
O	 -2.934631185	 1.256944822	 -0.971344456
O	 -3.503283865	 -0.910456881	 -0.762707911
H	 -4.065101894	 -0.497327219	 -0.090186184
C	 -1.866839512	 -0.394421105	 -2.376421051
H	 -1.342077121	 0.442165161	 -2.822100636
H	 -1.155916109	 -1.087699201	 -1.932141358
H	 -2.427434173	 -0.936922524	 -3.133991933
C	 -0.837435005	 0.276482474	 2.397922354
H	 -0.036755868	 0.936673082	 2.731184280
H	 -1.692737596	 0.900613826	 2.139938463
H	 -1.116810697	 -0.357087195	 3.238966283
C	 -0.389778883	 -0.548675600	 1.198065176
H	 -1.183339114	 -1.243447003	 0.911717661
H	 0.470409838	 -1.164116246	 1.472218728
C	 -0.023037277	 0.317448977	 0.000000000
H	 -0.890863888	 0.915265764	 -0.293346540
H	 0.750574297	 1.032151521	 0.295801016
C	 0.472330741	 -0.486410538	 -1.194835996
H	 -0.278281539	 -1.233487761	 -1.464919296
H	 1.365155331	 -1.045254460	 -0.905311495
C	 0.780950510	 0.390293646	 -2.401249980
H	 1.547352952	 1.125876283	 -2.157758125
H	 1.136864884	 -0.196178604	 -3.246927873
H	 -0.107675363	 0.935055345	 -2.720390018
