26
0  1  0  1  0  1   9  17 -2.03301 -1.91155 -1.94319 -2.06465 -2.01269 -2.04297  0.46852  0.46599  0.46543 -2.05951 -0.34088  1.07034 -0.19413 -2.59484
C	 0.697826042	 -0.084087763	 0.015297940
O	 1.091256550	 -1.239690960	 0.024699547
N	 0.410844938	 0.598165332	 1.160200805
H	 0.436492503	 0.092467222	 2.027900206
H	 -0.013923270	 1.504650976	 1.138222393
C	 0.486549448	 0.688180258	 -1.265170302
H	 0.383257846	 1.759098658	 -1.108892124
H	 -0.413420915	 0.311859998	 -1.748709805
H	 1.324790409	 0.495180475	 -1.927786819
C	 -3.800665981	 0.316020878	 -2.529008827
H	 -4.764170100	 0.826000941	 -2.521555664
H	 -3.028053552	 1.082295053	 -2.602984328
H	 -3.751520335	 -0.293401582	 -3.430149928
C	 -3.620799546	 -0.522243788	 -1.269889453
H	 -2.674234911	 -1.065036008	 -1.307916896
H	 -4.407985629	 -1.278085251	 -1.220202769
C	 -3.660101449	 0.317539234	 0.000000000
H	 -2.856365673	 1.060694494	 -0.032432560
H	 -4.596446825	 0.883627589	 0.033577002
C	 -3.522530308	 -0.510683512	 1.270420656
H	 -2.593630788	 -1.081728110	 1.221610116
H	 -4.334471747	 -1.240521990	 1.308636228
C	 -3.549084972	 0.347487501	 2.528629971
H	 -4.487923459	 0.896089739	 2.607071905
H	 -3.438375326	 -0.253294338	 3.430488721
H	 -2.742645695	 1.081562282	 2.512042804
