26
0  1  0  1  0  1   9  17  5.48425  6.33719  5.72097  4.86804  5.52914  5.13689 16.96145 16.94926 16.92542  5.59567 -11.00066 33.50429 -4.29983 -12.60814
C	 -0.294199903	 -0.089958243	 0.019140211
O	 -0.494817080	 -1.287455222	 0.145822633
N	 0.358439958	 0.644380821	 0.964358366
H	 0.592551628	 0.193609629	 1.831126896
H	 0.421394394	 1.641804521	 0.902633122
C	 -0.758489606	 0.684483779	 -1.191359372
H	 -0.294097949	 1.663572120	 -1.279021524
H	 -1.838188583	 0.808566055	 -1.126338201
H	 -0.544688502	 0.098220583	 -2.079921146
C	 -3.800665981	 0.316020878	 -2.529008827
H	 -4.764170100	 0.826000941	 -2.521555664
H	 -3.028053552	 1.082295053	 -2.602984328
H	 -3.751520335	 -0.293401582	 -3.430149928
C	 -3.620799546	 -0.522243788	 -1.269889453
H	 -2.674234911	 -1.065036008	 -1.307916896
H	 -4.407985629	 -1.278085251	 -1.220202769
C	 -3.660101449	 0.317539234	 0.000000000
H	 -2.856365673	 1.060694494	 -0.032432560
H	 -4.596446825	 0.883627589	 0.033577002
C	 -3.522530308	 -0.510683512	 1.270420656
H	 -2.593630788	 -1.081728110	 1.221610116
H	 -4.334471747	 -1.240521990	 1.308636228
C	 -3.549084972	 0.347487501	 2.528629971
H	 -4.487923459	 0.896089739	 2.607071905
H	 -3.438375326	 -0.253294338	 3.430488721
H	 -2.742645695	 1.081562282	 2.512042804
