26
0  1  0  1  0  1   9  17 -2.20646 -2.00560 -2.07105 -2.27191 -2.16472 -2.22768  1.20857  1.19952  1.19717 -2.18086 -1.02478  2.99547 -0.55504 -3.59650
C	 0.540978006	 -0.090103605	 0.019208084
O	 0.340360829	 -1.287600584	 0.145890506
N	 1.193617867	 0.644235459	 0.964426239
H	 1.427729537	 0.193464267	 1.831194769
H	 1.256572303	 1.641659159	 0.902700995
C	 0.076688303	 0.684338417	 -1.191291499
H	 0.541079960	 1.663426758	 -1.278953651
H	 -1.003010674	 0.808420693	 -1.126270328
H	 0.290489407	 0.098075221	 -2.079853273
C	 -3.800665981	 0.316020878	 -2.529008827
H	 -4.764170100	 0.826000941	 -2.521555664
H	 -3.028053552	 1.082295053	 -2.602984328
H	 -3.751520335	 -0.293401582	 -3.430149928
C	 -3.620799546	 -0.522243788	 -1.269889453
H	 -2.674234911	 -1.065036008	 -1.307916896
H	 -4.407985629	 -1.278085251	 -1.220202769
C	 -3.660101449	 0.317539234	 0.000000000
H	 -2.856365673	 1.060694494	 -0.032432560
H	 -4.596446825	 0.883627589	 0.033577002
C	 -3.522530308	 -0.510683512	 1.270420656
H	 -2.593630788	 -1.081728110	 1.221610116
H	 -4.334471747	 -1.240521990	 1.308636228
C	 -3.549084972	 0.347487501	 2.528629971
H	 -4.487923459	 0.896089739	 2.607071905
H	 -3.438375326	 -0.253294338	 3.430488721
H	 -2.742645695	 1.081562282	 2.512042804
