26
0  1  0  1  0  1   9  17 -2.38527 -2.21218 -2.25648 -2.42957 -2.34731 -2.39536  0.90947  0.90583  0.90467 -2.40503 -0.64888  1.97438 -0.29726 -3.43328
C	 0.502573469	 -0.084053243	 0.015282332
O	 0.896003977	 -1.239656440	 0.024683939
N	 0.215592365	 0.598199852	 1.160185197
H	 0.241239930	 0.092501742	 2.027884598
H	 -0.209175843	 1.504685496	 1.138206785
C	 0.291296875	 0.688214778	 -1.265185910
H	 0.188005273	 1.759133178	 -1.108907732
H	 -0.608673488	 0.311894518	 -1.748725413
H	 1.129537836	 0.495214995	 -1.927802427
C	 -3.800665981	 0.316020878	 -2.529008827
H	 -4.764170100	 0.826000941	 -2.521555664
H	 -3.028053552	 1.082295053	 -2.602984328
H	 -3.751520335	 -0.293401582	 -3.430149928
C	 -3.620799546	 -0.522243788	 -1.269889453
H	 -2.674234911	 -1.065036008	 -1.307916896
H	 -4.407985629	 -1.278085251	 -1.220202769
C	 -3.660101449	 0.317539234	 0.000000000
H	 -2.856365673	 1.060694494	 -0.032432560
H	 -4.596446825	 0.883627589	 0.033577002
C	 -3.522530308	 -0.510683512	 1.270420656
H	 -2.593630788	 -1.081728110	 1.221610116
H	 -4.334471747	 -1.240521990	 1.308636228
C	 -3.549084972	 0.347487501	 2.528629971
H	 -4.487923459	 0.896089739	 2.607071905
H	 -3.438375326	 -0.253294338	 3.430488721
H	 -2.742645695	 1.081562282	 2.512042804
