26
0  1  0  1  0  1   9  17 -2.14982 -1.96998 -2.01419 -2.19403 -2.09359 -2.15205  1.07774  1.07361  1.07268 -2.17898 -0.99413  2.81979 -0.53381 -3.47083
C	 -3.631840372	 -1.888119222	 -0.015266724
O	 -2.827773902	 -2.806641636	 -0.024668331
N	 -4.079198334	 -1.298459749	 -1.160169589
H	 -3.654074707	 -1.573520247	 -2.027868990
H	 -4.651853825	 -0.477356868	 -1.138191177
C	 -4.195005802	 -1.319014315	 1.265201518
H	 -5.070802539	 -0.694101963	 1.108923340
H	 -3.419117714	 -0.727777248	 1.748741021
H	 -4.446983566	 -2.141452173	 1.927818035
C	 0.168518131	 0.316020878	 2.529008827
H	 1.132022249	 0.826000941	 2.521555664
H	 -0.604094299	 1.082295053	 2.602984328
H	 0.119372484	 -0.293401582	 3.430149928
C	 -0.011348305	 -0.522243788	 1.269889453
H	 -0.957912939	 -1.065036008	 1.307916896
H	 0.775837778	 -1.278085251	 1.220202769
C	 0.027953598	 0.317539234	 -0.000000000
H	 -0.775782178	 1.060694494	 0.032432560
H	 0.964298974	 0.883627589	 -0.033577002
C	 -0.109617542	 -0.510683512	 -1.270420656
H	 -1.038517063	 -1.081728110	 -1.221610116
H	 0.702323896	 -1.240521990	 -1.308636228
C	 -0.083062879	 0.347487501	 -2.528629971
H	 0.855775608	 0.896089739	 -2.607071905
H	 -0.193772524	 -0.253294338	 -3.430488721
H	 -0.889502155	 1.081562282	 -2.512042804
