26
0  1  0  1  0  1   9  17 -1.96582 -1.85174 -1.85985 -1.97393 -1.92937 -1.95548  0.56483  0.56444  0.56360 -2.03017 -0.48133  1.40999 -0.27277 -2.68606
C	 -3.787388987	 1.822824378	 -0.015282332
O	 -4.180819496	 0.667221182	 -0.024683939
N	 -3.500407885	 2.505077474	 -1.160185197
H	 -3.526055450	 1.999379364	 -2.027884598
H	 -3.075639676	 3.411563117	 -1.138206785
C	 -3.576112395	 2.595092400	 1.265185910
H	 -3.472820791	 3.666010799	 1.108907732
H	 -2.676142031	 2.218772139	 1.748725413
H	 -4.414353355	 2.402092616	 1.927802427
C	 0.168518131	 0.316020878	 2.529008827
H	 1.132022249	 0.826000941	 2.521555664
H	 -0.604094299	 1.082295053	 2.602984328
H	 0.119372484	 -0.293401582	 3.430149928
C	 -0.011348305	 -0.522243788	 1.269889453
H	 -0.957912939	 -1.065036008	 1.307916896
H	 0.775837778	 -1.278085251	 1.220202769
C	 0.027953598	 0.317539234	 -0.000000000
H	 -0.775782178	 1.060694494	 0.032432560
H	 0.964298974	 0.883627589	 -0.033577002
C	 -0.109617542	 -0.510683512	 -1.270420656
H	 -1.038517063	 -1.081728110	 -1.221610116
H	 0.702323896	 -1.240521990	 -1.308636228
C	 -0.083062879	 0.347487501	 -2.528629971
H	 0.855775608	 0.896089739	 -2.607071905
H	 -0.193772524	 -0.253294338	 -3.430488721
H	 -0.889502155	 1.081562282	 -2.512042804
