26
0  1  0  1  0  1   9  17 -0.70413 -0.43784 -0.49029 -0.75658 -0.57874 -0.68429  3.49587  3.48982  3.48335 -0.63581 -2.19987  7.38625 -1.29281 -4.52937
C	 -3.877471466	 -0.090030924	 1.615292385
O	 -3.676854290	 -1.287527903	 1.488609963
N	 -4.530111329	 0.644308140	 0.670074230
H	 -4.764222998	 0.193536948	 -0.196694300
H	 -4.593065764	 1.641731840	 0.731799474
C	 -3.413181764	 0.684411098	 2.825791968
H	 -3.877573420	 1.663499439	 2.913454120
H	 -2.333482787	 0.808493374	 2.760770798
H	 -3.626982868	 0.098147902	 3.714353742
C	 0.168518131	 0.316020878	 2.529008827
H	 1.132022249	 0.826000941	 2.521555664
H	 -0.604094299	 1.082295053	 2.602984328
H	 0.119372484	 -0.293401582	 3.430149928
C	 -0.011348305	 -0.522243788	 1.269889453
H	 -0.957912939	 -1.065036008	 1.307916896
H	 0.775837778	 -1.278085251	 1.220202769
C	 0.027953598	 0.317539234	 -0.000000000
H	 -0.775782178	 1.060694494	 0.032432560
H	 0.964298974	 0.883627589	 -0.033577002
C	 -0.109617542	 -0.510683512	 -1.270420656
H	 -1.038517063	 -1.081728110	 -1.221610116
H	 0.702323896	 -1.240521990	 -1.308636228
C	 -0.083062879	 0.347487501	 -2.528629971
H	 0.855775608	 0.896089739	 -2.607071905
H	 -0.193772524	 -0.253294338	 -3.430488721
H	 -0.889502155	 1.081562282	 -2.512042804
