26
0  1  0  1  0  1   9  17 31.01027 32.78241 31.12768 29.35554 30.86780 29.96797 51.83022 51.82086 51.76027 29.88564 -33.06332 97.76044 -11.01515 -23.79634
C	 -0.711788858	 -0.089885563	 0.019106275
O	 -0.912406035	 -1.287382542	 0.145788697
N	 -0.059148997	 0.644453501	 0.964324430
H	 0.174962673	 0.193682309	 1.831092960
H	 0.003805439	 1.641877201	 0.902599186
C	 -1.176078561	 0.684556459	 -1.191393308
H	 -0.711686904	 1.663644800	 -1.279055460
H	 -2.255777538	 0.808638735	 -1.126372137
H	 -0.962277457	 0.098293263	 -2.079955082
C	 -3.800665981	 0.316020878	 -2.529008827
H	 -4.764170100	 0.826000941	 -2.521555664
H	 -3.028053552	 1.082295053	 -2.602984328
H	 -3.751520335	 -0.293401582	 -3.430149928
C	 -3.620799546	 -0.522243788	 -1.269889453
H	 -2.674234911	 -1.065036008	 -1.307916896
H	 -4.407985629	 -1.278085251	 -1.220202769
C	 -3.660101449	 0.317539234	 0.000000000
H	 -2.856365673	 1.060694494	 -0.032432560
H	 -4.596446825	 0.883627589	 0.033577002
C	 -3.522530308	 -0.510683512	 1.270420656
H	 -2.593630788	 -1.081728110	 1.221610116
H	 -4.334471747	 -1.240521990	 1.308636228
C	 -3.549084972	 0.347487501	 2.528629971
H	 -4.487923459	 0.896089739	 2.607071905
H	 -3.438375326	 -0.253294338	 3.430488721
H	 -2.742645695	 1.081562282	 2.512042804
