26
0  1  0  1  0  1   9  17 -2.77094 -2.61243 -2.66952 -2.82803 -2.74914 -2.79490  0.25894  0.25371  0.25334 -2.81512 -0.76329  1.61988 -0.41563 -3.25607
C	 0.051321023	 0.220832607	 4.545731508
O	 0.078233290	 1.405906088	 4.253890322
N	 1.183901295	 -0.531045040	 4.648551453
H	 2.054841548	 -0.108464521	 4.379889198
H	 1.144963331	 -1.522931704	 4.779974377
C	 -1.238899957	 -0.518104881	 4.810185337
H	 -1.091649953	 -1.478826241	 5.297309703
H	 -1.745127482	 -0.676413811	 3.859371990
H	 -1.876843905	 0.109131550	 5.425457190
C	 -2.587776049	 -0.323105663	 0.469458281
H	 -2.610389098	 -0.876366037	 -0.469619463
H	 -2.659744098	 -1.051886544	 1.277714106
H	 -3.476035067	 0.305624599	 0.508961287
C	 -1.309559821	 0.497394244	 0.585062602
H	 -1.317250596	 1.083261898	 1.506341079
H	 -1.262376728	 1.215573754	 -0.236776166
C	 -0.056829660	 -0.368260293	 0.558440171
H	 -0.086175261	 -1.073358819	 1.395875370
H	 -0.053809192	 -0.976843331	 -0.351473927
C	 1.231596056	 0.440065587	 0.632032464
H	 1.213283398	 1.053561928	 1.534593047
H	 1.266297334	 1.131376624	 -0.213105634
C	 2.472575228	 -0.443144406	 0.619221484
H	 2.520718878	 -1.035263421	 -0.294896953
H	 3.387734375	 0.144089745	 0.683908711
H	 2.459297033	 -1.139364229	 1.458618215
