26
0  1  0  1  0  1   9  17 -1.99698 -1.85605 -1.89748 -2.03841 -1.97121 -2.01066  0.54106  0.53421  0.53278 -1.99294 -0.56362  1.57055 -0.34078 -2.65910
C	 0.749772483	 -0.090139945	 0.019225052
O	 0.549155306	 -1.287636924	 0.145907474
N	 1.402412344	 0.644199119	 0.964443207
H	 1.636524014	 0.193427927	 1.831211737
H	 1.465366780	 1.641622819	 0.902717963
C	 0.285482780	 0.684302077	 -1.191274531
H	 0.749874437	 1.663390418	 -1.278936683
H	 -0.794216197	 0.808384353	 -1.126253360
H	 0.499283884	 0.098038881	 -2.079836305
C	 -3.800665981	 0.316020878	 -2.529008827
H	 -4.764170100	 0.826000941	 -2.521555664
H	 -3.028053552	 1.082295053	 -2.602984328
H	 -3.751520335	 -0.293401582	 -3.430149928
C	 -3.620799546	 -0.522243788	 -1.269889453
H	 -2.674234911	 -1.065036008	 -1.307916896
H	 -4.407985629	 -1.278085251	 -1.220202769
C	 -3.660101449	 0.317539234	 0.000000000
H	 -2.856365673	 1.060694494	 -0.032432560
H	 -4.596446825	 0.883627589	 0.033577002
C	 -3.522530308	 -0.510683512	 1.270420656
H	 -2.593630788	 -1.081728110	 1.221610116
H	 -4.334471747	 -1.240521990	 1.308636228
C	 -3.549084972	 0.347487501	 2.528629971
H	 -4.487923459	 0.896089739	 2.607071905
H	 -3.438375326	 -0.253294338	 3.430488721
H	 -2.742645695	 1.081562282	 2.512042804
