26
0  1  0  1  0  1   9  17 -1.96104 -1.84826 -1.84737 -1.96016 -1.90632 -1.93762  0.14978  0.14327  0.14284 -1.96828 -0.44234  0.99991 -0.29590 -2.22995
C	 0.783398932	 -0.090176286	 0.007254783
O	 0.573380148	 -1.287673265	 -0.103143578
N	 0.291135928	 0.644162778	 1.045066560
H	 -0.342451803	 0.193391586	 1.681197478
H	 0.376068776	 1.641586478	 1.068724079
C	 1.599577471	 0.684265736	 -1.000081686
H	 1.907690950	 1.663354077	 -0.641737790
H	 1.003417997	 0.808348012	 -1.902617843
H	 2.475995092	 0.098002540	 -1.259205385
C	 -3.800665981	 0.316020878	 -2.529008827
H	 -4.764170100	 0.826000941	 -2.521555664
H	 -3.028053552	 1.082295053	 -2.602984328
H	 -3.751520335	 -0.293401582	 -3.430149928
C	 -3.620799546	 -0.522243788	 -1.269889453
H	 -2.674234911	 -1.065036008	 -1.307916896
H	 -4.407985629	 -1.278085251	 -1.220202769
C	 -3.660101449	 0.317539234	 0.000000000
H	 -2.856365673	 1.060694494	 -0.032432560
H	 -4.596446825	 0.883627589	 0.033577002
C	 -3.522530308	 -0.510683512	 1.270420656
H	 -2.593630788	 -1.081728110	 1.221610116
H	 -4.334471747	 -1.240521990	 1.308636228
C	 -3.549084972	 0.347487501	 2.528629971
H	 -4.487923459	 0.896089739	 2.607071905
H	 -3.438375326	 -0.253294338	 3.430488721
H	 -2.742645695	 1.081562282	 2.512042804
