26
0  1  0  1  0  1   9  17 -3.40918 -2.97511 -3.16339 -3.59746 -3.31806 -3.48276  3.34592  3.33758  3.33005 -3.34567 -3.50622  8.91733 -1.40372 -7.35306
C	 0.039703191	 0.195981726	 4.001622450
O	 0.066615458	 1.381055207	 3.709781264
N	 1.172283463	 -0.555895921	 4.104442395
H	 2.043223716	 -0.133315402	 3.835780140
H	 1.133345499	 -1.547782585	 4.235865319
C	 -1.250517789	 -0.542955762	 4.266076279
H	 -1.103267785	 -1.503677122	 4.753200645
H	 -1.756745314	 -0.701264692	 3.315262932
H	 -1.888461737	 0.084280669	 4.881348132
C	 -2.587776049	 -0.323105663	 0.469458281
H	 -2.610389098	 -0.876366037	 -0.469619463
H	 -2.659744098	 -1.051886544	 1.277714106
H	 -3.476035067	 0.305624599	 0.508961287
C	 -1.309559821	 0.497394244	 0.585062602
H	 -1.317250596	 1.083261898	 1.506341079
H	 -1.262376728	 1.215573754	 -0.236776166
C	 -0.056829660	 -0.368260293	 0.558440171
H	 -0.086175261	 -1.073358819	 1.395875370
H	 -0.053809192	 -0.976843331	 -0.351473927
C	 1.231596056	 0.440065587	 0.632032464
H	 1.213283398	 1.053561928	 1.534593047
H	 1.266297334	 1.131376624	 -0.213105634
C	 2.472575228	 -0.443144406	 0.619221484
H	 2.520718878	 -1.035263421	 -0.294896953
H	 3.387734375	 0.144089745	 0.683908711
H	 2.459297033	 -1.139364229	 1.458618215
