26
0  1  0  1  0  1   9  17 35.83687 37.72800 36.10064 34.20951 35.84929 34.86657 55.12579 55.09546 55.01316 36.06696 -47.28465 118.99097 -12.78851 -22.85085
C	 -0.787470022	 -0.071879612	 0.015173077
O	 -1.591536493	 -0.990402026	 0.024574684
N	 -0.340112062	 0.517779861	 1.160075942
H	 -0.765235689	 0.242719363	 2.027775343
H	 0.232543430	 1.338882742	 1.138097530
C	 -0.224304594	 0.497225295	 -1.265295165
H	 0.651492145	 1.122137647	 -1.109016987
H	 -1.000192681	 1.088462363	 -1.748834668
H	 0.027673171	 -0.325212563	 -1.927911682
C	 -3.800665981	 0.316020878	 -2.529008827
H	 -4.764170100	 0.826000941	 -2.521555664
H	 -3.028053552	 1.082295053	 -2.602984328
H	 -3.751520335	 -0.293401582	 -3.430149928
C	 -3.620799546	 -0.522243788	 -1.269889453
H	 -2.674234911	 -1.065036008	 -1.307916896
H	 -4.407985629	 -1.278085251	 -1.220202769
C	 -3.660101449	 0.317539234	 0.000000000
H	 -2.856365673	 1.060694494	 -0.032432560
H	 -4.596446825	 0.883627589	 0.033577002
C	 -3.522530308	 -0.510683512	 1.270420656
H	 -2.593630788	 -1.081728110	 1.221610116
H	 -4.334471747	 -1.240521990	 1.308636228
C	 -3.549084972	 0.347487501	 2.528629971
H	 -4.487923459	 0.896089739	 2.607071905
H	 -3.438375326	 -0.253294338	 3.430488721
H	 -2.742645695	 1.081562282	 2.512042804
