26
0  1  0  1  0  1   9  17 -2.11920 -1.83241 -1.94502 -2.23181 -2.06071 -2.16141  2.49558  2.48452  2.48028 -2.05686 -1.87344  5.63199 -0.92151 -4.89390
C	 0.332183529	 -0.090067265	 0.019191116
O	 0.131566352	 -1.287564244	 0.145873538
N	 0.984823390	 0.644271799	 0.964409271
H	 1.218935060	 0.193500607	 1.831177801
H	 1.047777826	 1.641695499	 0.902684027
C	 -0.132106174	 0.684374757	 -1.191308467
H	 0.332285483	 1.663463098	 -1.278970619
H	 -1.211805151	 0.808457033	 -1.126287296
H	 0.081694930	 0.098111561	 -2.079870241
C	 -3.800665981	 0.316020878	 -2.529008827
H	 -4.764170100	 0.826000941	 -2.521555664
H	 -3.028053552	 1.082295053	 -2.602984328
H	 -3.751520335	 -0.293401582	 -3.430149928
C	 -3.620799546	 -0.522243788	 -1.269889453
H	 -2.674234911	 -1.065036008	 -1.307916896
H	 -4.407985629	 -1.278085251	 -1.220202769
C	 -3.660101449	 0.317539234	 0.000000000
H	 -2.856365673	 1.060694494	 -0.032432560
H	 -4.596446825	 0.883627589	 0.033577002
C	 -3.522530308	 -0.510683512	 1.270420656
H	 -2.593630788	 -1.081728110	 1.221610116
H	 -4.334471747	 -1.240521990	 1.308636228
C	 -3.549084972	 0.347487501	 2.528629971
H	 -4.487923459	 0.896089739	 2.607071905
H	 -3.438375326	 -0.253294338	 3.430488721
H	 -2.742645695	 1.081562282	 2.512042804
