26
0  1  0  1  0  1   9  17 -2.51329 -2.18087 -2.23926 -2.57169 -2.36179 -2.48532  2.54067  2.52793  2.52276 -2.42377 -2.41885  6.57326 -1.12864 -5.44954
C	 0.178862815	 -0.090067265	 0.007224594
O	 -0.031155969	 -1.287564244	 -0.103173767
N	 -0.313400189	 0.644271799	 1.045036371
H	 -0.946987920	 0.193500607	 1.681167289
H	 -0.228467341	 1.641695499	 1.068693890
C	 0.995041354	 0.684374757	 -1.000111875
H	 1.303154833	 1.663463098	 -0.641767979
H	 0.398881880	 0.808457033	 -1.902648032
H	 1.871458975	 0.098111561	 -1.259235574
C	 -3.800665981	 0.316020878	 -2.529008827
H	 -4.764170100	 0.826000941	 -2.521555664
H	 -3.028053552	 1.082295053	 -2.602984328
H	 -3.751520335	 -0.293401582	 -3.430149928
C	 -3.620799546	 -0.522243788	 -1.269889453
H	 -2.674234911	 -1.065036008	 -1.307916896
H	 -4.407985629	 -1.278085251	 -1.220202769
C	 -3.660101449	 0.317539234	 0.000000000
H	 -2.856365673	 1.060694494	 -0.032432560
H	 -4.596446825	 0.883627589	 0.033577002
C	 -3.522530308	 -0.510683512	 1.270420656
H	 -2.593630788	 -1.081728110	 1.221610116
H	 -4.334471747	 -1.240521990	 1.308636228
C	 -3.549084972	 0.347487501	 2.528629971
H	 -4.487923459	 0.896089739	 2.607071905
H	 -3.438375326	 -0.253294338	 3.430488721
H	 -2.742645695	 1.081562282	 2.512042804
