26
0  1  0  1  0  1   9  17 -1.63346 -1.25342 -1.40149 -1.78153 -1.52725 -1.67701  4.24508  4.23944  4.23290 -1.53712 -3.41130  9.55337 -1.31919 -6.36000
C	 -3.263166430	 -1.706456601	 -0.015235508
O	 -2.459099960	 -2.624979015	 -0.024637115
N	 -3.710524392	 -1.116797128	 -1.160138373
H	 -3.285400765	 -1.391857626	 -2.027837774
H	 -4.283179883	 -0.295694247	 -1.138159961
C	 -3.826331860	 -1.137351694	 1.265232734
H	 -4.702128597	 -0.512439342	 1.108954556
H	 -3.050443772	 -0.546114627	 1.748772237
H	 -4.078309624	 -1.959789552	 1.927849251
C	 0.168518131	 0.316020878	 2.529008827
H	 1.132022249	 0.826000941	 2.521555664
H	 -0.604094299	 1.082295053	 2.602984328
H	 0.119372484	 -0.293401582	 3.430149928
C	 -0.011348305	 -0.522243788	 1.269889453
H	 -0.957912939	 -1.065036008	 1.307916896
H	 0.775837778	 -1.278085251	 1.220202769
C	 0.027953598	 0.317539234	 -0.000000000
H	 -0.775782178	 1.060694494	 0.032432560
H	 0.964298974	 0.883627589	 -0.033577002
C	 -0.109617542	 -0.510683512	 -1.270420656
H	 -1.038517063	 -1.081728110	 -1.221610116
H	 0.702323896	 -1.240521990	 -1.308636228
C	 -0.083062879	 0.347487501	 -2.528629971
H	 0.855775608	 0.896089739	 -2.607071905
H	 -0.193772524	 -0.253294338	 -3.430488721
H	 -0.889502155	 1.081562282	 -2.512042804
