26
0  1  0  1  0  1   9  17 -1.91001 -1.78459 -1.81195 -1.93737 -1.87311 -1.91027  0.49811  0.49386  0.49383 -1.95096 -0.52523  1.50172 -0.34787 -2.57958
C	 -3.816177343	 -1.978950532	 -0.015282332
O	 -3.012110873	 -2.897472946	 -0.024683939
N	 -4.263535305	 -1.389291059	 -1.160185197
H	 -3.838411678	 -1.664351557	 -2.027884598
H	 -4.836190796	 -0.568188178	 -1.138206785
C	 -4.379342773	 -1.409845625	 1.265185910
H	 -5.255139510	 -0.784933273	 1.108907732
H	 -3.603454685	 -0.818608558	 1.748725413
H	 -4.631320537	 -2.232283483	 1.927802427
C	 0.168518131	 0.316020878	 2.529008827
H	 1.132022249	 0.826000941	 2.521555664
H	 -0.604094299	 1.082295053	 2.602984328
H	 0.119372484	 -0.293401582	 3.430149928
C	 -0.011348305	 -0.522243788	 1.269889453
H	 -0.957912939	 -1.065036008	 1.307916896
H	 0.775837778	 -1.278085251	 1.220202769
C	 0.027953598	 0.317539234	 -0.000000000
H	 -0.775782178	 1.060694494	 0.032432560
H	 0.964298974	 0.883627589	 -0.033577002
C	 -0.109617542	 -0.510683512	 -1.270420656
H	 -1.038517063	 -1.081728110	 -1.221610116
H	 0.702323896	 -1.240521990	 -1.308636228
C	 -0.083062879	 0.347487501	 -2.528629971
H	 0.855775608	 0.896089739	 -2.607071905
H	 -0.193772524	 -0.253294338	 -3.430488721
H	 -0.889502155	 1.081562282	 -2.512042804
