26
0  1  0  1  0  1   9  17 -2.57531 -2.34408 -2.36329 -2.59452 -2.46201 -2.53968  1.18297  1.17243  1.16989 -2.54194 -1.35537  3.54105 -0.70540 -4.02223
C	 0.380374854	 -0.090103605	 0.007234657
O	 0.170356070	 -1.287600584	 -0.103163704
N	 -0.111888150	 0.644235459	 1.045046434
H	 -0.745475881	 0.193464267	 1.681177352
H	 -0.026955302	 1.641659159	 1.068703953
C	 1.196553393	 0.684338417	 -1.000101812
H	 1.504666872	 1.663426758	 -0.641757916
H	 0.600393919	 0.808420693	 -1.902637969
H	 2.072971014	 0.098075221	 -1.259225511
C	 -3.800665981	 0.316020878	 -2.529008827
H	 -4.764170100	 0.826000941	 -2.521555664
H	 -3.028053552	 1.082295053	 -2.602984328
H	 -3.751520335	 -0.293401582	 -3.430149928
C	 -3.620799546	 -0.522243788	 -1.269889453
H	 -2.674234911	 -1.065036008	 -1.307916896
H	 -4.407985629	 -1.278085251	 -1.220202769
C	 -3.660101449	 0.317539234	 0.000000000
H	 -2.856365673	 1.060694494	 -0.032432560
H	 -4.596446825	 0.883627589	 0.033577002
C	 -3.522530308	 -0.510683512	 1.270420656
H	 -2.593630788	 -1.081728110	 1.221610116
H	 -4.334471747	 -1.240521990	 1.308636228
C	 -3.549084972	 0.347487501	 2.528629971
H	 -4.487923459	 0.896089739	 2.607071905
H	 -3.438375326	 -0.253294338	 3.430488721
H	 -2.742645695	 1.081562282	 2.512042804
