26
0  1  0  1  0  1   9  17  3.81676  4.62041  4.12638  3.32273  3.94762  3.57765 14.58172 14.57253 14.55190  4.21718 -10.94908 30.28785 -3.38206 -11.73953
C	 -2.894492488	 -1.524793981	 -0.015204292
O	 -2.090426018	 -2.443316395	 -0.024605899
N	 -3.341850450	 -0.935134508	 -1.160107157
H	 -2.916726823	 -1.210195006	 -2.027806558
H	 -3.914505941	 -0.114031627	 -1.138128745
C	 -3.457657918	 -0.955689074	 1.265263950
H	 -4.333454655	 -0.330776722	 1.108985772
H	 -2.681769830	 -0.364452007	 1.748803453
H	 -3.709635682	 -1.778126932	 1.927880467
C	 0.168518131	 0.316020878	 2.529008827
H	 1.132022249	 0.826000941	 2.521555664
H	 -0.604094299	 1.082295053	 2.602984328
H	 0.119372484	 -0.293401582	 3.430149928
C	 -0.011348305	 -0.522243788	 1.269889453
H	 -0.957912939	 -1.065036008	 1.307916896
H	 0.775837778	 -1.278085251	 1.220202769
C	 0.027953598	 0.317539234	 -0.000000000
H	 -0.775782178	 1.060694494	 0.032432560
H	 0.964298974	 0.883627589	 -0.033577002
C	 -0.109617542	 -0.510683512	 -1.270420656
H	 -1.038517063	 -1.081728110	 -1.221610116
H	 0.702323896	 -1.240521990	 -1.308636228
C	 -0.083062879	 0.347487501	 -2.528629971
H	 0.855775608	 0.896089739	 -2.607071905
H	 -0.193772524	 -0.253294338	 -3.430488721
H	 -0.889502155	 1.081562282	 -2.512042804
