26
0  1  0  1  0  1   9  17 -3.19812 -2.97783 -3.05682 -3.27710 -3.15740 -3.22723  0.74409  0.73872  0.73725 -3.23228 -1.25061  2.88428 -0.61288 -4.25306
C	 0.047448413	 0.212548980	 4.364361822
O	 0.074360680	 1.397622461	 4.072520636
N	 1.180028685	 -0.539328667	 4.467181767
H	 2.050968938	 -0.116748148	 4.198519512
H	 1.141090721	 -1.531215331	 4.598604691
C	 -1.242772567	 -0.526388508	 4.628815651
H	 -1.095522563	 -1.487109868	 5.115940017
H	 -1.749000092	 -0.684697438	 3.678002304
H	 -1.880716515	 0.100847923	 5.244087504
C	 -2.587776049	 -0.323105663	 0.469458281
H	 -2.610389098	 -0.876366037	 -0.469619463
H	 -2.659744098	 -1.051886544	 1.277714106
H	 -3.476035067	 0.305624599	 0.508961287
C	 -1.309559821	 0.497394244	 0.585062602
H	 -1.317250596	 1.083261898	 1.506341079
H	 -1.262376728	 1.215573754	 -0.236776166
C	 -0.056829660	 -0.368260293	 0.558440171
H	 -0.086175261	 -1.073358819	 1.395875370
H	 -0.053809192	 -0.976843331	 -0.351473927
C	 1.231596056	 0.440065587	 0.632032464
H	 1.213283398	 1.053561928	 1.534593047
H	 1.266297334	 1.131376624	 -0.213105634
C	 2.472575228	 -0.443144406	 0.619221484
H	 2.520718878	 -1.035263421	 -0.294896953
H	 3.387734375	 0.144089745	 0.683908711
H	 2.459297033	 -1.139364229	 1.458618215
