26
0  1  0  1  0  1   9  17 -1.60457 -1.51621 -1.53607 -1.62443 -1.58240 -1.60655  0.20401  0.19969  0.20004 -1.64405 -0.27374  0.79046 -0.23157 -1.92920
C	 -4.000514314	 -2.069781843	 -0.015297940
O	 -3.196447844	 -2.988304257	 -0.024699547
N	 -4.447872276	 -1.480122370	 -1.160200805
H	 -4.022748649	 -1.755182868	 -2.027900206
H	 -5.020527767	 -0.659019489	 -1.138222393
C	 -4.563679744	 -1.500676936	 1.265170302
H	 -5.439476481	 -0.875764584	 1.108892124
H	 -3.787791656	 -0.909439869	 1.748709805
H	 -4.815657508	 -2.323114794	 1.927786819
C	 0.168518131	 0.316020878	 2.529008827
H	 1.132022249	 0.826000941	 2.521555664
H	 -0.604094299	 1.082295053	 2.602984328
H	 0.119372484	 -0.293401582	 3.430149928
C	 -0.011348305	 -0.522243788	 1.269889453
H	 -0.957912939	 -1.065036008	 1.307916896
H	 0.775837778	 -1.278085251	 1.220202769
C	 0.027953598	 0.317539234	 -0.000000000
H	 -0.775782178	 1.060694494	 0.032432560
H	 0.964298974	 0.883627589	 -0.033577002
C	 -0.109617542	 -0.510683512	 -1.270420656
H	 -1.038517063	 -1.081728110	 -1.221610116
H	 0.702323896	 -1.240521990	 -1.308636228
C	 -0.083062879	 0.347487501	 -2.528629971
H	 0.855775608	 0.896089739	 -2.607071905
H	 -0.193772524	 -0.253294338	 -3.430488721
H	 -0.889502155	 1.081562282	 -2.512042804
