26
0  1  0  1  0  1   9  17 -1.57391 -1.48409 -1.47632 -1.56614 -1.51921 -1.54661  0.14142  0.13923  0.13859 -1.60352 -0.53377  0.99285 -0.22296 -1.83964
C	 -4.414428605	 -0.090139945	 -1.914122341
O	 -4.204409822	 -1.287636924	 -1.803723981
N	 -3.922165603	 0.644199119	 -2.951934119
H	 -3.288577871	 0.193427927	 -3.588065037
H	 -4.007098450	 1.641622819	 -2.975591637
C	 -5.230607145	 0.684302077	 -0.906785873
H	 -5.538720623	 1.663390418	 -1.265129768
H	 -4.634447671	 0.808384353	 -0.004249715
H	 -6.107024766	 0.098038881	 -0.647662173
C	 0.168518131	 0.316020878	 2.529008827
H	 1.132022249	 0.826000941	 2.521555664
H	 -0.604094299	 1.082295053	 2.602984328
H	 0.119372484	 -0.293401582	 3.430149928
C	 -0.011348305	 -0.522243788	 1.269889453
H	 -0.957912939	 -1.065036008	 1.307916896
H	 0.775837778	 -1.278085251	 1.220202769
C	 0.027953598	 0.317539234	 -0.000000000
H	 -0.775782178	 1.060694494	 0.032432560
H	 0.964298974	 0.883627589	 -0.033577002
C	 -0.109617542	 -0.510683512	 -1.270420656
H	 -1.038517063	 -1.081728110	 -1.221610116
H	 0.702323896	 -1.240521990	 -1.308636228
C	 -0.083062879	 0.347487501	 -2.528629971
H	 0.855775608	 0.896089739	 -2.607071905
H	 -0.193772524	 -0.253294338	 -3.430488721
H	 -0.889502155	 1.081562282	 -2.512042804
