26
0  1  0  1  0  1   9  17 -1.47236 -1.12722 -1.20166 -1.54680 -1.33503 -1.45919  4.64031  4.63746  4.63336 -1.48997 -2.82969  9.17604 -1.23766 -6.59866
C	 -3.251250172	 1.550516847	 -0.015235508
O	 -3.644680681	 0.394913651	 -0.024637115
N	 -2.964269070	 2.232769943	 -1.160138373
H	 -2.989916635	 1.727071833	 -2.027837774
H	 -2.539500861	 3.139255586	 -1.138159961
C	 -3.039973580	 2.322784869	 1.265232734
H	 -2.936681976	 3.393703268	 1.108954556
H	 -2.140003216	 1.946464608	 1.748772237
H	 -3.878214540	 2.129785085	 1.927849251
C	 0.168518131	 0.316020878	 2.529008827
H	 1.132022249	 0.826000941	 2.521555664
H	 -0.604094299	 1.082295053	 2.602984328
H	 0.119372484	 -0.293401582	 3.430149928
C	 -0.011348305	 -0.522243788	 1.269889453
H	 -0.957912939	 -1.065036008	 1.307916896
H	 0.775837778	 -1.278085251	 1.220202769
C	 0.027953598	 0.317539234	 -0.000000000
H	 -0.775782178	 1.060694494	 0.032432560
H	 0.964298974	 0.883627589	 -0.033577002
C	 -0.109617542	 -0.510683512	 -1.270420656
H	 -1.038517063	 -1.081728110	 -1.221610116
H	 0.702323896	 -1.240521990	 -1.308636228
C	 -0.083062879	 0.347487501	 -2.528629971
H	 0.855775608	 0.896089739	 -2.607071905
H	 -0.193772524	 -0.253294338	 -3.430488721
H	 -0.889502155	 1.081562282	 -2.512042804
