26
0  1  0  1  0  1   9  17 29.85033 31.47134 30.19910 28.57810 29.95685 29.13841 50.31128 50.30078 50.25018 28.76355 -28.51641 92.98361 -12.27707 -23.42658
C	 -2.536398419	 1.187440139	 -0.015173077
O	 -2.929828928	 0.031836943	 -0.024574684
N	 -2.249417317	 1.869693235	 -1.160075942
H	 -2.275064882	 1.363995125	 -2.027775343
H	 -1.824649108	 2.776178878	 -1.138097530
C	 -2.325121827	 1.959708161	 1.265295165
H	 -2.221830223	 3.030626560	 1.109016987
H	 -1.425151463	 1.583387900	 1.748834668
H	 -3.163362787	 1.766708377	 1.927911682
C	 0.168518131	 0.316020878	 2.529008827
H	 1.132022249	 0.826000941	 2.521555664
H	 -0.604094299	 1.082295053	 2.602984328
H	 0.119372484	 -0.293401582	 3.430149928
C	 -0.011348305	 -0.522243788	 1.269889453
H	 -0.957912939	 -1.065036008	 1.307916896
H	 0.775837778	 -1.278085251	 1.220202769
C	 0.027953598	 0.317539234	 -0.000000000
H	 -0.775782178	 1.060694494	 0.032432560
H	 0.964298974	 0.883627589	 -0.033577002
C	 -0.109617542	 -0.510683512	 -1.270420656
H	 -1.038517063	 -1.081728110	 -1.221610116
H	 0.702323896	 -1.240521990	 -1.308636228
C	 -0.083062879	 0.347487501	 -2.528629971
H	 0.855775608	 0.896089739	 -2.607071905
H	 -0.193772524	 -0.253294338	 -3.430488721
H	 -0.889502155	 1.081562282	 -2.512042804
