26
0  1  0  1  0  1   9  17 -1.48369 -1.36872 -1.37159 -1.48656 -1.42873 -1.46255  0.58874  0.58498  0.58406 -1.48036 -0.55447  1.62848 -0.35268 -2.20170
C	 -4.308608706	 -0.090103605	 1.796865841
O	 -4.107991530	 -1.287600584	 1.670183419
N	 -4.961248569	 0.644235459	 0.851647686
H	 -5.195360238	 0.193464267	 -0.015120844
H	 -5.024203004	 1.641659159	 0.913372930
C	 -3.844319004	 0.684338417	 3.007365424
H	 -4.308710660	 1.663426758	 3.095027576
H	 -2.764620027	 0.808420693	 2.942344254
H	 -4.058120108	 0.098075221	 3.895927198
C	 0.168518131	 0.316020878	 2.529008827
H	 1.132022249	 0.826000941	 2.521555664
H	 -0.604094299	 1.082295053	 2.602984328
H	 0.119372484	 -0.293401582	 3.430149928
C	 -0.011348305	 -0.522243788	 1.269889453
H	 -0.957912939	 -1.065036008	 1.307916896
H	 0.775837778	 -1.278085251	 1.220202769
C	 0.027953598	 0.317539234	 -0.000000000
H	 -0.775782178	 1.060694494	 0.032432560
H	 0.964298974	 0.883627589	 -0.033577002
C	 -0.109617542	 -0.510683512	 -1.270420656
H	 -1.038517063	 -1.081728110	 -1.221610116
H	 0.702323896	 -1.240521990	 -1.308636228
C	 -0.083062879	 0.347487501	 -2.528629971
H	 0.855775608	 0.896089739	 -2.607071905
H	 -0.193772524	 -0.253294338	 -3.430488721
H	 -0.889502155	 1.081562282	 -2.512042804
