26
0  1  0  1  0  1   9  17 -1.80873 -1.59206 -1.59092 -1.80759 -1.67048 -1.75189  1.54341  1.53889  1.53381 -1.79007 -1.80702  4.26932 -0.62393 -3.62843
C	 -3.992319397	 -0.090067265	 -1.732494823
O	 -3.782300614	 -1.287564244	 -1.622096463
N	 -3.500056395	 0.644271799	 -2.770306601
H	 -2.866468663	 0.193500607	 -3.406437519
H	 -3.584989242	 1.641695499	 -2.793964119
C	 -4.808497937	 0.684374757	 -0.725158355
H	 -5.116611415	 1.663463098	 -1.083502250
H	 -4.212338463	 0.808457033	 0.177377803
H	 -5.684915558	 0.098111561	 -0.466034655
C	 0.168518131	 0.316020878	 2.529008827
H	 1.132022249	 0.826000941	 2.521555664
H	 -0.604094299	 1.082295053	 2.602984328
H	 0.119372484	 -0.293401582	 3.430149928
C	 -0.011348305	 -0.522243788	 1.269889453
H	 -0.957912939	 -1.065036008	 1.307916896
H	 0.775837778	 -1.278085251	 1.220202769
C	 0.027953598	 0.317539234	 -0.000000000
H	 -0.775782178	 1.060694494	 0.032432560
H	 0.964298974	 0.883627589	 -0.033577002
C	 -0.109617542	 -0.510683512	 -1.270420656
H	 -1.038517063	 -1.081728110	 -1.221610116
H	 0.702323896	 -1.240521990	 -1.308636228
C	 -0.083062879	 0.347487501	 -2.528629971
H	 0.855775608	 0.896089739	 -2.607071905
H	 -0.193772524	 -0.253294338	 -3.430488721
H	 -0.889502155	 1.081562282	 -2.512042804
