26
0  1  0  1  0  1   9  17 -2.44738 -2.17737 -2.28191 -2.55191 -2.36789 -2.47732  1.67404  1.67293  1.66571 -2.52985 -2.94267  6.68716 -1.47806 -4.79628
C	 0.248093149	 -0.072017683	 0.015251116
O	 -0.555973322	 -0.990540097	 0.024652723
N	 0.695451109	 0.517641790	 1.160153981
H	 0.270327482	 0.242581292	 2.027853382
H	 1.268106601	 1.338744671	 1.138175569
C	 0.811258577	 0.497087224	 -1.265217126
H	 1.687055316	 1.121999576	 -1.108938948
H	 0.035370490	 1.088324292	 -1.748756629
H	 1.063236342	 -0.325350634	 -1.927833643
C	 -3.800665981	 0.316020878	 -2.529008827
H	 -4.764170100	 0.826000941	 -2.521555664
H	 -3.028053552	 1.082295053	 -2.602984328
H	 -3.751520335	 -0.293401582	 -3.430149928
C	 -3.620799546	 -0.522243788	 -1.269889453
H	 -2.674234911	 -1.065036008	 -1.307916896
H	 -4.407985629	 -1.278085251	 -1.220202769
C	 -3.660101449	 0.317539234	 0.000000000
H	 -2.856365673	 1.060694494	 -0.032432560
H	 -4.596446825	 0.883627589	 0.033577002
C	 -3.522530308	 -0.510683512	 1.270420656
H	 -2.593630788	 -1.081728110	 1.221610116
H	 -4.334471747	 -1.240521990	 1.308636228
C	 -3.549084972	 0.347487501	 2.528629971
H	 -4.487923459	 0.896089739	 2.607071905
H	 -3.438375326	 -0.253294338	 3.430488721
H	 -2.742645695	 1.081562282	 2.512042804
