26
0  1  0  1  0  1   9  17 -1.35015 -0.93926 -1.13996 -1.55085 -1.27923 -1.43962  4.90136  4.88887  4.88090 -1.23779 -3.41588 10.41411 -1.54530 -6.69072
C	 0.123389051	 -0.090030924	 0.019174148
O	 -0.077228126	 -1.287527903	 0.145856570
N	 0.776028912	 0.644308140	 0.964392303
H	 1.010140582	 0.193536948	 1.831160833
H	 0.838983348	 1.641731840	 0.902667059
C	 -0.340900652	 0.684411098	 -1.191325435
H	 0.123491005	 1.663499439	 -1.278987587
H	 -1.420599629	 0.808493374	 -1.126304264
H	 -0.127099548	 0.098147902	 -2.079887209
C	 -3.800665981	 0.316020878	 -2.529008827
H	 -4.764170100	 0.826000941	 -2.521555664
H	 -3.028053552	 1.082295053	 -2.602984328
H	 -3.751520335	 -0.293401582	 -3.430149928
C	 -3.620799546	 -0.522243788	 -1.269889453
H	 -2.674234911	 -1.065036008	 -1.307916896
H	 -4.407985629	 -1.278085251	 -1.220202769
C	 -3.660101449	 0.317539234	 0.000000000
H	 -2.856365673	 1.060694494	 -0.032432560
H	 -4.596446825	 0.883627589	 0.033577002
C	 -3.522530308	 -0.510683512	 1.270420656
H	 -2.593630788	 -1.081728110	 1.221610116
H	 -4.334471747	 -1.240521990	 1.308636228
C	 -3.549084972	 0.347487501	 2.528629971
H	 -4.487923459	 0.896089739	 2.607071905
H	 -3.438375326	 -0.253294338	 3.430488721
H	 -2.742645695	 1.081562282	 2.512042804
