26
0  1  0  1  0  1   9  17 33.22743 35.32570 33.52472 31.42645 33.20066 32.14474 57.62782 57.61007 57.53846 32.56424 -37.61981 106.31718 -8.84437 -27.28877
C	 -0.864194543	 -0.083811608	 0.015173077
O	 -0.470764035	 -1.239414805	 0.024574684
N	 -1.151175647	 0.598441487	 1.160075942
H	 -1.125528082	 0.092743377	 2.027775343
H	 -1.575943855	 1.504927131	 1.138097530
C	 -1.075471137	 0.688456413	 -1.265295165
H	 -1.178762739	 1.759374813	 -1.109016987
H	 -1.975441500	 0.312136153	 -1.748834668
H	 -0.237230176	 0.495456630	 -1.927911682
C	 -3.800665981	 0.316020878	 -2.529008827
H	 -4.764170100	 0.826000941	 -2.521555664
H	 -3.028053552	 1.082295053	 -2.602984328
H	 -3.751520335	 -0.293401582	 -3.430149928
C	 -3.620799546	 -0.522243788	 -1.269889453
H	 -2.674234911	 -1.065036008	 -1.307916896
H	 -4.407985629	 -1.278085251	 -1.220202769
C	 -3.660101449	 0.317539234	 0.000000000
H	 -2.856365673	 1.060694494	 -0.032432560
H	 -4.596446825	 0.883627589	 0.033577002
C	 -3.522530308	 -0.510683512	 1.270420656
H	 -2.593630788	 -1.081728110	 1.221610116
H	 -4.334471747	 -1.240521990	 1.308636228
C	 -3.549084972	 0.347487501	 2.528629971
H	 -4.487923459	 0.896089739	 2.607071905
H	 -3.438375326	 -0.253294338	 3.430488721
H	 -2.742645695	 1.081562282	 2.512042804
