26
0  1  0  1  0  1   9  17 25.49759 27.15342 25.73171 24.07587 25.49359 24.65788 45.01121 45.00139 44.96324 25.52692 -32.34030 87.99234 -8.49377 -21.63135
C	 -2.525818545	 -1.343131360	 -0.015173077
O	 -1.721752075	 -2.261653774	 -0.024574684
N	 -2.973176507	 -0.753471887	 -1.160075942
H	 -2.548052880	 -1.028532385	 -2.027775343
H	 -3.545831998	 0.067630994	 -1.138097530
C	 -3.088983975	 -0.774026453	 1.265295165
H	 -3.964780712	 -0.149114101	 1.109016987
H	 -2.313095887	 -0.182789386	 1.748834668
H	 -3.340961739	 -1.596464311	 1.927911682
C	 0.168518131	 0.316020878	 2.529008827
H	 1.132022249	 0.826000941	 2.521555664
H	 -0.604094299	 1.082295053	 2.602984328
H	 0.119372484	 -0.293401582	 3.430149928
C	 -0.011348305	 -0.522243788	 1.269889453
H	 -0.957912939	 -1.065036008	 1.307916896
H	 0.775837778	 -1.278085251	 1.220202769
C	 0.027953598	 0.317539234	 -0.000000000
H	 -0.775782178	 1.060694494	 0.032432560
H	 0.964298974	 0.883627589	 -0.033577002
C	 -0.109617542	 -0.510683512	 -1.270420656
H	 -1.038517063	 -1.081728110	 -1.221610116
H	 0.702323896	 -1.240521990	 -1.308636228
C	 -0.083062879	 0.347487501	 -2.528629971
H	 0.855775608	 0.896089739	 -2.607071905
H	 -0.193772524	 -0.253294338	 -3.430488721
H	 -0.889502155	 1.081562282	 -2.512042804
