26
0  1  0  1  0  1   9  17 -2.53623 -2.35867 -2.41862 -2.59617 -2.48512 -2.55044  0.50133  0.50150  0.49885 -2.64660 -1.68913  3.53627 -0.96396 -3.52977
C	 0.455205783	 -0.072045297	 0.015266724
O	 -0.348860688	 -0.990567711	 0.024668331
N	 0.902563743	 0.517614176	 1.160169589
H	 0.477440116	 0.242553678	 2.027868990
H	 1.475219235	 1.338717057	 1.138191177
C	 1.018371211	 0.497059610	 -1.265201518
H	 1.894167950	 1.121971962	 -1.108923340
H	 0.242483124	 1.088296678	 -1.748741021
H	 1.270348976	 -0.325378248	 -1.927818035
C	 -3.800665981	 0.316020878	 -2.529008827
H	 -4.764170100	 0.826000941	 -2.521555664
H	 -3.028053552	 1.082295053	 -2.602984328
H	 -3.751520335	 -0.293401582	 -3.430149928
C	 -3.620799546	 -0.522243788	 -1.269889453
H	 -2.674234911	 -1.065036008	 -1.307916896
H	 -4.407985629	 -1.278085251	 -1.220202769
C	 -3.660101449	 0.317539234	 0.000000000
H	 -2.856365673	 1.060694494	 -0.032432560
H	 -4.596446825	 0.883627589	 0.033577002
C	 -3.522530308	 -0.510683512	 1.270420656
H	 -2.593630788	 -1.081728110	 1.221610116
H	 -4.334471747	 -1.240521990	 1.308636228
C	 -3.549084972	 0.347487501	 2.528629971
H	 -4.487923459	 0.896089739	 2.607071905
H	 -3.438375326	 -0.253294338	 3.430488721
H	 -2.742645695	 1.081562282	 2.512042804
