26
0  1  0  1  0  1   9  17 -1.68997 -1.59161 -1.62129 -1.71965 -1.67756 -1.70227  0.20719  0.20226  0.20135 -1.69774 -0.31479  0.81332 -0.21499 -1.98127
C	 0.958566961	 -0.090176286	 0.019242020
O	 0.757949784	 -1.287673265	 0.145924442
N	 1.611206822	 0.644162778	 0.964460175
H	 1.845318492	 0.193391586	 1.831228705
H	 1.674161258	 1.641586478	 0.902734931
C	 0.494277258	 0.684265736	 -1.191257563
H	 0.958668915	 1.663354077	 -1.278919715
H	 -0.585421719	 0.808348012	 -1.126236392
H	 0.708078362	 0.098002540	 -2.079819337
C	 -3.800665981	 0.316020878	 -2.529008827
H	 -4.764170100	 0.826000941	 -2.521555664
H	 -3.028053552	 1.082295053	 -2.602984328
H	 -3.751520335	 -0.293401582	 -3.430149928
C	 -3.620799546	 -0.522243788	 -1.269889453
H	 -2.674234911	 -1.065036008	 -1.307916896
H	 -4.407985629	 -1.278085251	 -1.220202769
C	 -3.660101449	 0.317539234	 0.000000000
H	 -2.856365673	 1.060694494	 -0.032432560
H	 -4.596446825	 0.883627589	 0.033577002
C	 -3.522530308	 -0.510683512	 1.270420656
H	 -2.593630788	 -1.081728110	 1.221610116
H	 -4.334471747	 -1.240521990	 1.308636228
C	 -3.549084972	 0.347487501	 2.528629971
H	 -4.487923459	 0.896089739	 2.607071905
H	 -3.438375326	 -0.253294338	 3.430488721
H	 -2.742645695	 1.081562282	 2.512042804
