26
0  1  0  1  0  1   9  17 -1.95334 -1.87418 -1.90179 -1.98095 -1.94132 -1.96405 -0.27447 -0.27598 -0.27555 -2.03938 -0.61803  0.95539 -0.43365 -1.94309
C	 0.869431051	 -0.072100525	 0.015297940
O	 0.065364580	 -0.990622939	 0.024699547
N	 1.316789011	 0.517558948	 1.160200805
H	 0.891665384	 0.242498450	 2.027900206
H	 1.889444503	 1.338661829	 1.138222393
C	 1.432596479	 0.497004382	 -1.265170302
H	 2.308393218	 1.121916734	 -1.108892124
H	 0.656708392	 1.088241450	 -1.748709805
H	 1.684574244	 -0.325433476	 -1.927786819
C	 -3.800665981	 0.316020878	 -2.529008827
H	 -4.764170100	 0.826000941	 -2.521555664
H	 -3.028053552	 1.082295053	 -2.602984328
H	 -3.751520335	 -0.293401582	 -3.430149928
C	 -3.620799546	 -0.522243788	 -1.269889453
H	 -2.674234911	 -1.065036008	 -1.307916896
H	 -4.407985629	 -1.278085251	 -1.220202769
C	 -3.660101449	 0.317539234	 0.000000000
H	 -2.856365673	 1.060694494	 -0.032432560
H	 -4.596446825	 0.883627589	 0.033577002
C	 -3.522530308	 -0.510683512	 1.270420656
H	 -2.593630788	 -1.081728110	 1.221610116
H	 -4.334471747	 -1.240521990	 1.308636228
C	 -3.549084972	 0.347487501	 2.528629971
H	 -4.487923459	 0.896089739	 2.607071905
H	 -3.438375326	 -0.253294338	 3.430488721
H	 -2.742645695	 1.081562282	 2.512042804
