26
0  1  0  1  0  1   9  17 -1.69900 -1.21793 -1.35948 -1.84055 -1.50727 -1.70421  5.12107  5.10640  5.09629 -1.51598 -4.32821 12.06261 -1.83762 -7.41276
C	 -0.022649224	 -0.090030924	 0.007214531
O	 -0.232668008	 -1.287527903	 -0.103183830
N	 -0.514912228	 0.644308140	 1.045026308
H	 -1.148499959	 0.193536948	 1.681157226
H	 -0.429979380	 1.641731840	 1.068683827
C	 0.793529315	 0.684411098	 -1.000121938
H	 1.101642794	 1.663499439	 -0.641778042
H	 0.197369841	 0.808493374	 -1.902658095
H	 1.669946936	 0.098147902	 -1.259245637
C	 -3.800665981	 0.316020878	 -2.529008827
H	 -4.764170100	 0.826000941	 -2.521555664
H	 -3.028053552	 1.082295053	 -2.602984328
H	 -3.751520335	 -0.293401582	 -3.430149928
C	 -3.620799546	 -0.522243788	 -1.269889453
H	 -2.674234911	 -1.065036008	 -1.307916896
H	 -4.407985629	 -1.278085251	 -1.220202769
C	 -3.660101449	 0.317539234	 0.000000000
H	 -2.856365673	 1.060694494	 -0.032432560
H	 -4.596446825	 0.883627589	 0.033577002
C	 -3.522530308	 -0.510683512	 1.270420656
H	 -2.593630788	 -1.081728110	 1.221610116
H	 -4.334471747	 -1.240521990	 1.308636228
C	 -3.549084972	 0.347487501	 2.528629971
H	 -4.487923459	 0.896089739	 2.607071905
H	 -3.438375326	 -0.253294338	 3.430488721
H	 -2.742645695	 1.081562282	 2.512042804
