26
0  1  0  1  0  1   9  17 43.87775 45.37771 43.97385 42.47389 43.78490 43.00075 61.71337 61.69996 61.63782 41.35706 -27.55022 111.97718 -21.27840 -21.79150
C	 -3.015196987	 -0.089885563	 1.252145473
O	 -2.814579811	 -1.287382542	 1.125463051
N	 -3.667836850	 0.644453501	 0.306927318
H	 -3.901948519	 0.193682309	 -0.559841212
H	 -3.730791285	 1.641877201	 0.368652562
C	 -2.550907285	 0.684556459	 2.462645056
H	 -3.015298941	 1.663644800	 2.550307208
H	 -1.471208308	 0.808638735	 2.397623886
H	 -2.764708389	 0.098293263	 3.351206830
C	 0.168518131	 0.316020878	 2.529008827
H	 1.132022249	 0.826000941	 2.521555664
H	 -0.604094299	 1.082295053	 2.602984328
H	 0.119372484	 -0.293401582	 3.430149928
C	 -0.011348305	 -0.522243788	 1.269889453
H	 -0.957912939	 -1.065036008	 1.307916896
H	 0.775837778	 -1.278085251	 1.220202769
C	 0.027953598	 0.317539234	 -0.000000000
H	 -0.775782178	 1.060694494	 0.032432560
H	 0.964298974	 0.883627589	 -0.033577002
C	 -0.109617542	 -0.510683512	 -1.270420656
H	 -1.038517063	 -1.081728110	 -1.221610116
H	 0.702323896	 -1.240521990	 -1.308636228
C	 -0.083062879	 0.347487501	 -2.528629971
H	 0.855775608	 0.896089739	 -2.607071905
H	 -0.193772524	 -0.253294338	 -3.430488721
H	 -0.889502155	 1.081562282	 -2.512042804
