26
0  1  0  1  0  1   9  17 -2.16312 -1.90262 -1.98198 -2.24249 -2.08298 -2.17639  2.18527  2.18077  2.17794 -2.15287 -1.85554  5.22744 -0.83331 -4.69145
C	 -3.447503401	 -1.797287912	 -0.015251116
O	 -2.643436931	 -2.715810326	 -0.024652723
N	 -3.894861363	 -1.207628439	 -1.160153981
H	 -3.469737736	 -1.482688937	 -2.027853382
H	 -4.467516854	 -0.386525558	 -1.138175569
C	 -4.010668831	 -1.228183005	 1.265217126
H	 -4.886465568	 -0.603270653	 1.108938948
H	 -3.234780743	 -0.636945938	 1.748756629
H	 -4.262646595	 -2.050620863	 1.927833643
C	 0.168518131	 0.316020878	 2.529008827
H	 1.132022249	 0.826000941	 2.521555664
H	 -0.604094299	 1.082295053	 2.602984328
H	 0.119372484	 -0.293401582	 3.430149928
C	 -0.011348305	 -0.522243788	 1.269889453
H	 -0.957912939	 -1.065036008	 1.307916896
H	 0.775837778	 -1.278085251	 1.220202769
C	 0.027953598	 0.317539234	 -0.000000000
H	 -0.775782178	 1.060694494	 0.032432560
H	 0.964298974	 0.883627589	 -0.033577002
C	 -0.109617542	 -0.510683512	 -1.270420656
H	 -1.038517063	 -1.081728110	 -1.221610116
H	 0.702323896	 -1.240521990	 -1.308636228
C	 -0.083062879	 0.347487501	 -2.528629971
H	 0.855775608	 0.896089739	 -2.607071905
H	 -0.193772524	 -0.253294338	 -3.430488721
H	 -0.889502155	 1.081562282	 -2.512042804
