26
0  1  0  1  0  1   9  17 -1.28255 -1.22415 -1.22119 -1.27960 -1.25219 -1.26805 -0.03559 -0.03735 -0.03738 -1.30985 -0.31025  0.47310 -0.14163 -1.33107
C	 -4.625483209	 -0.090176286	 -2.004936101
O	 -4.415464426	 -1.287673265	 -1.894537741
N	 -4.133220207	 0.644162778	 -3.042747879
H	 -3.499632475	 0.193391586	 -3.678878797
H	 -4.218153054	 1.641586478	 -3.066405397
C	 -5.441661749	 0.684265736	 -0.997599633
H	 -5.749775227	 1.663354077	 -1.355943528
H	 -4.845502275	 0.808348012	 -0.095063475
H	 -6.318079370	 0.098002540	 -0.738475933
C	 0.168518131	 0.316020878	 2.529008827
H	 1.132022249	 0.826000941	 2.521555664
H	 -0.604094299	 1.082295053	 2.602984328
H	 0.119372484	 -0.293401582	 3.430149928
C	 -0.011348305	 -0.522243788	 1.269889453
H	 -0.957912939	 -1.065036008	 1.307916896
H	 0.775837778	 -1.278085251	 1.220202769
C	 0.027953598	 0.317539234	 -0.000000000
H	 -0.775782178	 1.060694494	 0.032432560
H	 0.964298974	 0.883627589	 -0.033577002
C	 -0.109617542	 -0.510683512	 -1.270420656
H	 -1.038517063	 -1.081728110	 -1.221610116
H	 0.702323896	 -1.240521990	 -1.308636228
C	 -0.083062879	 0.347487501	 -2.528629971
H	 0.855775608	 0.896089739	 -2.607071905
H	 -0.193772524	 -0.253294338	 -3.430488721
H	 -0.889502155	 1.081562282	 -2.512042804
