26
0  1  0  1  0  1   9  17 -2.63205 -2.38505 -2.45524 -2.70223 -2.57218 -2.64833  1.73061  1.72499  1.72272 -2.63246 -1.20830  3.61384 -0.46664 -4.57135
C	 0.307320896	 -0.084018724	 0.015266724
O	 0.700751404	 -1.239621921	 0.024668331
N	 0.020339792	 0.598234371	 1.160169589
H	 0.045987357	 0.092536261	 2.027868990
H	 -0.404428416	 1.504720015	 1.138191177
C	 0.096044302	 0.688249297	 -1.265201518
H	 -0.007247300	 1.759167697	 -1.108923340
H	 -0.803926061	 0.311929037	 -1.748741021
H	 0.934285263	 0.495249514	 -1.927818035
C	 -3.800665981	 0.316020878	 -2.529008827
H	 -4.764170100	 0.826000941	 -2.521555664
H	 -3.028053552	 1.082295053	 -2.602984328
H	 -3.751520335	 -0.293401582	 -3.430149928
C	 -3.620799546	 -0.522243788	 -1.269889453
H	 -2.674234911	 -1.065036008	 -1.307916896
H	 -4.407985629	 -1.278085251	 -1.220202769
C	 -3.660101449	 0.317539234	 0.000000000
H	 -2.856365673	 1.060694494	 -0.032432560
H	 -4.596446825	 0.883627589	 0.033577002
C	 -3.522530308	 -0.510683512	 1.270420656
H	 -2.593630788	 -1.081728110	 1.221610116
H	 -4.334471747	 -1.240521990	 1.308636228
C	 -3.549084972	 0.347487501	 2.528629971
H	 -4.487923459	 0.896089739	 2.607071905
H	 -3.438375326	 -0.253294338	 3.430488721
H	 -2.742645695	 1.081562282	 2.512042804
