20
0  1  0  1  0  1  12   8 -2.89893 -2.69422 -3.09497 -3.29968 -3.14172 -3.23346  0.32657  0.32904  0.32804 -2.83707 -2.42832  3.80425 -0.50761 -3.70539
C	 -0.105338704	 -0.706037221	 -1.196760050
H	 -0.189962158	 -1.253638989	 -2.125472910
C	 -0.207625066	 0.684059675	 -1.197760593
H	 -0.380861379	 1.213583102	 -2.124112330
C	 -0.100580354	 1.389644084	 -0.000364003
H	 -0.180226918	 2.468107962	 0.000000000
C	 0.105209061	 0.706558345	 1.197375077
H	 0.184825987	 1.255019339	 2.126013232
C	 0.206872792	 -0.684032946	 1.197508770
H	 0.368389280	 -1.214401380	 2.126094783
C	 0.102700077	 -1.390186417	 -0.000169554
H	 0.183085399	 -2.468735809	 -0.000492841
C	 -3.438982775	 1.391836055	 -2.227338392
O	 -2.828687653	 1.706665718	 -3.222506414
O	 -3.991724962	 2.311062049	 -1.395112778
H	 -3.775563554	 3.168927736	 -1.789262377
C	 -3.685396114	 0.000000000	 -1.738513608
H	 -3.328417735	 -0.709755923	 -2.475064835
H	 -3.151388990	 -0.144389124	 -0.800322076
H	 -4.746289342	 -0.144278146	 -1.548864965
