20
0  1  0  1  0  1  12   8 -2.87461 -2.67128 -3.09395 -3.29729 -3.14110 -3.23200  0.62410  0.62583  0.62440 -2.87143 -2.34525  3.95079 -0.49764 -3.97933
C	 -0.105338704	 -0.706037221	 -1.196760050
H	 -0.189962158	 -1.253638989	 -2.125472910
C	 -0.207625066	 0.684059675	 -1.197760593
H	 -0.380861379	 1.213583102	 -2.124112330
C	 -0.100580354	 1.389644084	 -0.000364003
H	 -0.180226918	 2.468107962	 0.000000000
C	 0.105209061	 0.706558345	 1.197375077
H	 0.184825987	 1.255019339	 2.126013232
C	 0.206872792	 -0.684032946	 1.197508770
H	 0.368389280	 -1.214401380	 2.126094783
C	 0.102700077	 -1.390186417	 -0.000169554
H	 0.183085399	 -2.468735809	 -0.000492841
C	 -3.050211684	 2.959385081	 -0.546541350
O	 -2.865995904	 3.216562032	 -1.713529699
O	 -2.644791065	 3.786746127	 0.450558267
H	 -2.224408948	 4.534616370	 0.001133997
C	 -3.719272375	 1.738513608	 0.000000000
H	 -4.125352589	 1.153408583	 -0.816361263
H	 -2.984712744	 1.147689209	 0.545494139
H	 -4.504961098	 2.025533151	 0.694687157
