20
0  1  0  1  0  1  12   8 -1.97186 -1.72265 -2.24714 -2.49635 -2.29027 -2.41031  2.62859  2.63000  2.62787 -1.91515 -2.72232  6.42406 -0.61473 -5.00216
C	 -3.371688512	 -0.706037221	 1.196760050
H	 -3.287065059	 -1.253638989	 2.125472910
C	 -3.269402151	 0.684059675	 1.197760593
H	 -3.096165838	 1.213583102	 2.124112330
C	 -3.376446862	 1.389644084	 0.000364003
H	 -3.296800299	 2.468107962	 -0.000000000
C	 -3.582236278	 0.706558345	 -1.197375077
H	 -3.661853203	 1.255019339	 -2.126013232
C	 -3.683900008	 -0.684032946	 -1.197508770
H	 -3.845416497	 -1.214401380	 -2.126094783
C	 -3.579727293	 -1.390186417	 0.000169554
H	 -3.660112616	 -2.468735809	 0.000492841
C	 0.035947282	 1.220871222	 0.546533602
O	 -0.148268497	 1.478048173	 1.713521951
O	 -0.369473338	 2.048232268	 -0.450566015
H	 -0.789855455	 2.796102510	 -0.001141745
C	 0.705007972	 -0.000000251	 -0.000007748
H	 1.111088187	 -0.585105276	 0.816353515
H	 -0.029551659	 -0.590824651	 -0.545501887
H	 1.490696695	 0.287019292	 -0.694694905
