20
0  1  0  1  0  1  12   8 25.65800 27.21526 23.92060 22.36333 23.75530 22.94115 44.35958 44.35584 44.33351 24.99287 -31.04730 84.18097 -8.35795 -19.78286
C	 -3.371688512	 -0.706037221	 1.196760050
H	 -3.287065059	 -1.253638989	 2.125472910
C	 -3.269402151	 0.684059675	 1.197760593
H	 -3.096165838	 1.213583102	 2.124112330
C	 -3.376446862	 1.389644084	 0.000364003
H	 -3.296800299	 2.468107962	 -0.000000000
C	 -3.582236278	 0.706558345	 -1.197375077
H	 -3.661853203	 1.255019339	 -2.126013232
C	 -3.683900008	 -0.684032946	 -1.197508770
H	 -3.845416497	 -1.214401380	 -2.126094783
C	 -3.579727293	 -1.390186417	 0.000169554
H	 -3.660112616	 -2.468735809	 0.000492841
C	 -0.292467593	 1.189857785	 0.546494860
O	 -0.161853709	 1.477981805	 1.713483209
O	 0.221337781	 1.954642864	 -0.450604757
H	 0.658821351	 2.692639577	 -0.001180487
C	 -1.015242958	 -0.000001506	 -0.000046490
H	 -1.318918666	 -0.644229801	 0.816314773
H	 -1.894191713	 0.340733595	 -0.545540629
H	 -0.373832381	 -0.536918128	 -0.694733647
