20
0  1  0  1  0  1  12   8 -1.74566 -1.31714 -2.28718 -2.71570 -2.38332 -2.57666  4.42050  4.41335  4.41055 -1.57990 -5.12489 11.71442 -1.48269 -6.68674
C	 -3.371688512	 -0.706037221	 1.196760050
H	 -3.287065059	 -1.253638989	 2.125472910
C	 -3.269402151	 0.684059675	 1.197760593
H	 -3.096165838	 1.213583102	 2.124112330
C	 -3.376446862	 1.389644084	 0.000364003
H	 -3.296800299	 2.468107962	 -0.000000000
C	 -3.582236278	 0.706558345	 -1.197375077
H	 -3.661853203	 1.255019339	 -2.126013232
C	 -3.683900008	 -0.684032946	 -1.197508770
H	 -3.845416497	 -1.214401380	 -2.126094783
C	 -3.579727293	 -1.390186417	 0.000169554
H	 -3.660112616	 -2.468735809	 0.000492841
C	 0.410577624	 1.189858789	 0.546525853
O	 0.541191508	 1.477982809	 1.713514202
O	 0.924382998	 1.954643868	 -0.450573764
H	 1.361866568	 2.692640581	 -0.001149494
C	 -0.312197741	 -0.000000502	 -0.000015497
H	 -0.615873449	 -0.644228797	 0.816345766
H	 -1.191146496	 0.340734599	 -0.545509636
H	 0.329212836	 -0.536917124	 -0.694702654
