20
0  1  0  1  0  1  12   8 -2.30381 -2.20742 -2.43161 -2.52800 -2.45964 -2.49807 -0.58932 -0.58702 -0.58444 -2.31687 -1.15439  1.09288 -0.20248 -2.05288
C	 -0.105338704	 -0.706037221	 -1.196760050
H	 -0.189962158	 -1.253638989	 -2.125472910
C	 -0.207625066	 0.684059675	 -1.197760593
H	 -0.380861379	 1.213583102	 -2.124112330
C	 -0.100580354	 1.389644084	 -0.000364003
H	 -0.180226918	 2.468107962	 0.000000000
C	 0.105209061	 0.706558345	 1.197375077
H	 0.184825987	 1.255019339	 2.126013232
C	 0.206872792	 -0.684032946	 1.197508770
H	 0.368389280	 -1.214401380	 2.126094783
C	 0.102700077	 -1.390186417	 -0.000169554
H	 0.183085399	 -2.468735809	 -0.000492841
C	 -3.807409787	 1.391836557	 -2.401205249
O	 -3.197114665	 1.706666220	 -3.396373271
O	 -4.360151974	 2.311062551	 -1.568979635
H	 -4.143990566	 3.168928238	 -1.963129234
C	 -4.053823126	 0.000000502	 -1.912380465
H	 -3.696844747	 -0.709755421	 -2.648931692
H	 -3.519816002	 -0.144388622	 -0.974188933
H	 -5.114716354	 -0.144277644	 -1.722731822
