20
0  1  0  1  0  1  12   8 -2.87168 -2.68298 -3.14219 -3.33089 -3.20204 -3.27746  0.15648  0.15191  0.14971 -2.87252 -1.65943  2.70368 -0.46580 -3.45098
C	 -3.371688512	 -0.706037221	 1.196760050
H	 -3.287065059	 -1.253638989	 2.125472910
C	 -3.269402151	 0.684059675	 1.197760593
H	 -3.096165838	 1.213583102	 2.124112330
C	 -3.376446862	 1.389644084	 0.000364003
H	 -3.296800299	 2.468107962	 -0.000000000
C	 -3.582236278	 0.706558345	 -1.197375077
H	 -3.661853203	 1.255019339	 -2.126013232
C	 -3.683900008	 -0.684032946	 -1.197508770
H	 -3.845416497	 -1.214401380	 -2.126094783
C	 -3.579727293	 -1.390186417	 0.000169554
H	 -3.660112616	 -2.468735809	 0.000492841
C	 0.625885709	 1.391836306	 0.457820350
O	 1.182578936	 1.706665969	 1.483935441
O	 0.181528278	 2.311062300	 -0.436981232
H	 0.414791140	 3.168927987	 -0.052705161
C	 0.325757697	 0.000000251	 0.000007748
H	 0.785140582	 -0.709755672	 0.677435705
H	 -0.753743566	 -0.144388873	 -0.006624283
H	 0.691963768	 -0.144277895	 -1.013577060
