20
0  1  0  1  0  1  12   8 -1.21913 -0.81450 -1.72873 -2.13336 -1.78692 -1.98959  5.18890  5.18948  5.18383 -1.02574 -5.93576 13.58495 -1.65929 -7.01564
C	 -3.371688512	 -0.706037221	 1.196760050
H	 -3.287065059	 -1.253638989	 2.125472910
C	 -3.269402151	 0.684059675	 1.197760593
H	 -3.096165838	 1.213583102	 2.124112330
C	 -3.376446862	 1.389644084	 0.000364003
H	 -3.296800299	 2.468107962	 -0.000000000
C	 -3.582236278	 0.706558345	 -1.197375077
H	 -3.661853203	 1.255019339	 -2.126013232
C	 -3.683900008	 -0.684032946	 -1.197508770
H	 -3.845416497	 -1.214401380	 -2.126094783
C	 -3.579727293	 -1.390186417	 0.000169554
H	 -3.660112616	 -2.468735809	 0.000492841
C	 -0.131051402	 1.391835553	 0.488809287
O	 -0.741346524	 1.706665216	 1.483977309
O	 0.421690784	 2.311061547	 -0.343416328
H	 0.205529376	 3.168927234	 0.050733272
C	 0.115361936	 -0.000000502	 -0.000015497
H	 -0.241616442	 -0.709756425	 0.736535730
H	 -0.418645188	 -0.144389626	 -0.938207029
H	 1.176255164	 -0.144278648	 -0.189664140
