20
0  1  0  1  0  1  12   8 -2.17653 -2.05346 -2.39628 -2.51935 -2.43637 -2.48503  0.12715  0.12582  0.12420 -2.20772 -1.19526  1.92858 -0.37789 -2.56314
C	 -0.105338704	 -0.706037221	 -1.196760050
H	 -0.189962158	 -1.253638989	 -2.125472910
C	 -0.207625066	 0.684059675	 -1.197760593
H	 -0.380861379	 1.213583102	 -2.124112330
C	 -0.100580354	 1.389644084	 -0.000364003
H	 -0.180226918	 2.468107962	 0.000000000
C	 0.105209061	 0.706558345	 1.197375077
H	 0.184825987	 1.255019339	 2.126013232
C	 0.206872792	 -0.684032946	 1.197508770
H	 0.368389280	 -1.214401380	 2.126094783
C	 0.102700077	 -1.390186417	 -0.000169554
H	 0.183085399	 -2.468735809	 -0.000492841
C	 -3.993386631	 1.391836306	 1.367618938
O	 -4.550079858	 1.706665969	 0.341503847
O	 -3.549029201	 2.311062300	 2.262420520
H	 -3.782292063	 3.168927987	 1.878144450
C	 -3.693258620	 0.000000251	 1.825431540
H	 -4.152641504	 -0.709755672	 1.148003583
H	 -2.613757357	 -0.144388873	 1.832063572
H	 -4.059464691	 -0.144277895	 2.839016349
