20
0  1  0  1  0  1  12   8 -2.12344 -1.96354 -2.33736 -2.49725 -2.37021 -2.44387  1.16907  1.17028  1.16977 -2.14117 -1.47577  3.30081 -0.35737 -3.60883
C	 -3.371688512	 -0.706037221	 1.196760050
H	 -3.287065059	 -1.253638989	 2.125472910
C	 -3.269402151	 0.684059675	 1.197760593
H	 -3.096165838	 1.213583102	 2.124112330
C	 -3.376446862	 1.389644084	 0.000364003
H	 -3.296800299	 2.468107962	 -0.000000000
C	 -3.582236278	 0.706558345	 -1.197375077
H	 -3.661853203	 1.255019339	 -2.126013232
C	 -3.683900008	 -0.684032946	 -1.197508770
H	 -3.845416497	 -1.214401380	 -2.126094783
C	 -3.579727293	 -1.390186417	 0.000169554
H	 -3.660112616	 -2.468735809	 0.000492841
C	 0.255995134	 1.220871473	 0.546541350
O	 0.071779355	 1.478048424	 1.713529699
O	 -0.149425486	 2.048232519	 -0.450558267
H	 -0.569807603	 2.796102761	 -0.001133997
C	 0.925055824	 0.000000000	 0.000000000
H	 1.331136039	 -0.585105025	 0.816361263
H	 0.190496193	 -0.590824400	 -0.545494139
H	 1.710744547	 0.287019543	 -0.694687157
