20
0  1  0  1  0  1  12   8 -0.94732 -0.55860 -1.31232 -1.70104 -1.36964 -1.56342  5.51920  5.51990  5.51470 -0.73960 -5.11955 12.45085 -1.09900 -6.97190
C	 -3.371688512	 -0.706037221	 1.196760050
H	 -3.287065059	 -1.253638989	 2.125472910
C	 -3.269402151	 0.684059675	 1.197760593
H	 -3.096165838	 1.213583102	 2.124112330
C	 -3.376446862	 1.389644084	 0.000364003
H	 -3.296800299	 2.468107962	 -0.000000000
C	 -3.582236278	 0.706558345	 -1.197375077
H	 -3.661853203	 1.255019339	 -2.126013232
C	 -3.683900008	 -0.684032946	 -1.197508770
H	 -3.845416497	 -1.214401380	 -2.126094783
C	 -3.579727293	 -1.390186417	 0.000169554
H	 -3.660112616	 -2.468735809	 0.000492841
C	 -0.184100570	 1.220870971	 0.546525853
O	 -0.368316349	 1.478047922	 1.713514202
O	 -0.589521190	 2.048232017	 -0.450573764
H	 -1.009903307	 2.796102259	 -0.001149494
C	 0.484960120	 -0.000000502	 -0.000015497
H	 0.891040335	 -0.585105527	 0.816345766
H	 -0.249599511	 -0.590824902	 -0.545509636
H	 1.270648843	 0.287019041	 -0.694702654
