20
0  1  0  1  0  1  12   8 -2.17740 -2.01446 -2.41847 -2.58141 -2.46670 -2.53349  0.63500  0.63348  0.63235 -2.18563 -1.59553  2.97979 -0.47147 -3.09842
C	 -0.105338704	 -0.706037221	 -1.196760050
H	 -0.189962158	 -1.253638989	 -2.125472910
C	 -0.207625066	 0.684059675	 -1.197760593
H	 -0.380861379	 1.213583102	 -2.124112330
C	 -0.100580354	 1.389644084	 -0.000364003
H	 -0.180226918	 2.468107962	 0.000000000
C	 0.105209061	 0.706558345	 1.197375077
H	 0.184825987	 1.255019339	 2.126013232
C	 0.206872792	 -0.684032946	 1.197508770
H	 0.368389280	 -1.214401380	 2.126094783
C	 0.102700077	 -1.390186417	 -0.000169554
H	 0.183085399	 -2.468735809	 -0.000492841
C	 -4.225359972	 -0.548654317	 -0.546541350
O	 -4.355973855	 -0.260530297	 -1.713529699
O	 -4.739165347	 0.216130761	 0.450558267
H	 -5.176648917	 0.954127475	 0.001133997
C	 -3.502584608	 -1.738513608	 0.000000000
H	 -3.198908899	 -2.382741903	 -0.816361263
H	 -2.623635853	 -1.397778507	 0.545494139
H	 -4.143995185	 -2.275430231	 0.694687157
