20
0  1  0  1  0  1  12   8 35.26743 37.52830 32.95960 30.69872 32.76154 31.55335 60.51379 60.51660 60.47958 34.60837 -48.90301 123.90694 -12.66895 -27.72661
C	 0.606784959	 1.330421848	 0.316434508
H	 1.246498457	 2.202264343	 0.330352311
C	 1.118084657	 0.087248862	 0.685116522
H	 2.150057527	 -0.003886783	 0.993758239
C	 0.292902289	 -1.036087368	 0.669107267
H	 0.688496859	 -2.000961486	 0.955377972
C	 -1.042831736	 -0.916711123	 0.288189637
H	 -1.682709560	 -1.788488247	 0.279349028
C	 -1.553588379	 0.327348987	 -0.079943171
H	 -2.589234948	 0.420289081	 -0.377346195
C	 -0.728041637	 1.450843156	 -0.066848338
H	 -1.123623792	 2.415658650	 -0.353861434
C	 0.533889561	 -0.440369036	 3.009419439
O	 1.729382235	 -0.276418290	 3.085935216
O	 -0.045612111	 -1.651773997	 3.208857796
H	 0.688838747	 -2.252882491	 3.401895911
C	 -0.487994667	 0.603562481	 2.688738259
H	 -0.009700247	 1.574508833	 2.641915488
H	 -0.940794769	 0.370366293	 1.726030212
H	 -1.272845681	 0.598025981	 3.441237739
