20
0  1  0  1  0  1  12   8 -2.02717 -1.91325 -2.21761 -2.33154 -2.25448 -2.29901  0.07627  0.07693  0.07699 -2.06010 -1.08886  1.68901 -0.30468 -2.35556
C	 -0.105338704	 -0.706037221	 -1.196760050
H	 -0.189962158	 -1.253638989	 -2.125472910
C	 -0.207625066	 0.684059675	 -1.197760593
H	 -0.380861379	 1.213583102	 -2.124112330
C	 -0.100580354	 1.389644084	 -0.000364003
H	 -0.180226918	 2.468107962	 0.000000000
C	 0.105209061	 0.706558345	 1.197375077
H	 0.184825987	 1.255019339	 2.126013232
C	 0.206872792	 -0.684032946	 1.197508770
H	 0.368389280	 -1.214401380	 2.126094783
C	 0.102700077	 -1.390186417	 -0.000169554
H	 0.183085399	 -2.468735809	 -0.000492841
C	 -4.400432902	 -0.635579746	 -0.546549098
O	 -4.531046785	 -0.347455726	 -1.713537447
O	 -4.914238277	 0.129205332	 0.450550519
H	 -5.351721847	 0.867202046	 0.001126249
C	 -3.677657538	 -1.825439037	 -0.000007748
H	 -3.373981829	 -2.469667332	 -0.816369011
H	 -2.798708783	 -1.484703936	 0.545486391
H	 -4.319068115	 -2.362355660	 0.694679409
