20
0  1  0  1  0  1  12   8 21.31649 22.63651 19.91395 18.59393 19.76484 19.07916 37.71496 37.70871 37.68798 20.90019 -26.91677 73.27614 -7.88108 -17.57811
C	 -0.105338704	 -0.706037221	 -1.196760050
H	 -0.189962158	 -1.253638989	 -2.125472910
C	 -0.207625066	 0.684059675	 -1.197760593
H	 -0.380861379	 1.213583102	 -2.124112330
C	 -0.100580354	 1.389644084	 -0.000364003
H	 -0.180226918	 2.468107962	 0.000000000
C	 0.105209061	 0.706558345	 1.197375077
H	 0.184825987	 1.255019339	 2.126013232
C	 0.206872792	 -0.684032946	 1.197508770
H	 0.368389280	 -1.214401380	 2.126094783
C	 0.102700077	 -1.390186417	 -0.000169554
H	 0.183085399	 -2.468735809	 -0.000492841
C	 -3.174922389	 -0.027101741	 -0.546494860
O	 -3.305536272	 0.261022279	 -1.713483209
O	 -3.688727764	 0.737683337	 0.450604757
H	 -4.126211334	 1.475680051	 0.001180487
C	 -2.452147025	 -1.216961032	 0.000046490
H	 -2.148471316	 -1.861189327	 -0.816314773
H	 -1.573198270	 -0.876225931	 0.545540629
H	 -3.093557602	 -1.753877655	 0.694733647
