20
0  1  0  1  0  1  12   8 -1.74915 -1.30135 -2.07667 -2.52448 -2.15133 -2.37235  4.40951  4.40878  4.39623 -1.44667 -6.16030 12.97578 -1.40652 -6.85562
C	 -0.105338704	 -0.706037221	 -1.196760050
H	 -0.189962158	 -1.253638989	 -2.125472910
C	 -0.207625066	 0.684059675	 -1.197760593
H	 -0.380861379	 1.213583102	 -2.124112330
C	 -0.100580354	 1.389644084	 -0.000364003
H	 -0.180226918	 2.468107962	 0.000000000
C	 0.105209061	 0.706558345	 1.197375077
H	 0.184825987	 1.255019339	 2.126013232
C	 0.206872792	 -0.684032946	 1.197508770
H	 0.368389280	 -1.214401380	 2.126094783
C	 0.102700077	 -1.390186417	 -0.000169554
H	 0.183085399	 -2.468735809	 -0.000492841
C	 -3.070555763	 1.391835553	 -2.053471535
O	 -2.460260641	 1.706665216	 -3.048639557
O	 -3.623297950	 2.311061547	 -1.221245921
H	 -3.407136542	 3.168927234	 -1.615395520
C	 -3.316969102	 -0.000000502	 -1.564646751
H	 -2.959990723	 -0.709756425	 -2.301197978
H	 -2.782961978	 -0.144389626	 -0.626455219
H	 -4.377862330	 -0.144278648	 -1.374998108
