20
0  1  0  1  0  1  12   8 -2.66566 -2.52563 -2.82252 -2.96255 -2.85890 -2.91829 -0.31970 -0.31704 -0.31578 -2.65413 -1.63252  2.04357 -0.31622 -2.74896
C	 -0.105338704	 -0.706037221	 -1.196760050
H	 -0.189962158	 -1.253638989	 -2.125472910
C	 -0.207625066	 0.684059675	 -1.197760593
H	 -0.380861379	 1.213583102	 -2.124112330
C	 -0.100580354	 1.389644084	 -0.000364003
H	 -0.180226918	 2.468107962	 0.000000000
C	 0.105209061	 0.706558345	 1.197375077
H	 0.184825987	 1.255019339	 2.126013232
C	 0.206872792	 -0.684032946	 1.197508770
H	 0.368389280	 -1.214401380	 2.126094783
C	 0.102700077	 -1.390186417	 -0.000169554
H	 0.183085399	 -2.468735809	 -0.000492841
C	 -3.623196281	 1.391836306	 -2.314271821
O	 -3.012901159	 1.706665969	 -3.309439843
O	 -4.175938468	 2.311062300	 -1.482046207
H	 -3.959777060	 3.168927987	 -1.876195806
C	 -3.869609620	 0.000000251	 -1.825447037
H	 -3.512631241	 -0.709755672	 -2.561998264
H	 -3.335602496	 -0.144388873	 -0.887255505
H	 -4.930502848	 -0.144277895	 -1.635798394
