20
0  1  0  1  0  1  12   8 -2.16816 -1.89586 -2.56344 -2.83574 -2.60888 -2.74053  2.54267  2.54444  2.54326 -2.15070 -3.41503  7.52372 -1.05377 -5.20562
C	 -3.371688512	 -0.706037221	 1.196760050
H	 -3.287065059	 -1.253638989	 2.125472910
C	 -3.269402151	 0.684059675	 1.197760593
H	 -3.096165838	 1.213583102	 2.124112330
C	 -3.376446862	 1.389644084	 0.000364003
H	 -3.296800299	 2.468107962	 -0.000000000
C	 -3.582236278	 0.706558345	 -1.197375077
H	 -3.661853203	 1.255019339	 -2.126013232
C	 -3.683900008	 -0.684032946	 -1.197508770
H	 -3.845416497	 -1.214401380	 -2.126094783
C	 -3.579727293	 -1.390186417	 0.000169554
H	 -3.660112616	 -2.468735809	 0.000492841
C	 0.068463217	 1.391835804	 0.488817036
O	 -0.541831905	 1.706665467	 1.483985058
O	 0.621205403	 2.311061798	 -0.343408579
H	 0.405043995	 3.168927485	 0.050741021
C	 0.314876555	 -0.000000251	 -0.000007748
H	 -0.042101823	 -0.709756174	 0.736543479
H	 -0.219130569	 -0.144389375	 -0.938199280
H	 1.375769783	 -0.144278397	 -0.189656391
