20
0  1  0  1  0  1  12   8 -3.49576 -3.06797 -4.10599 -4.53378 -4.19887 -4.39461  3.03276  3.02391  3.01888 -3.35368 -4.90829 10.18047 -1.33561 -7.29026
C	 0.606784959	 1.330421848	 0.316434508
H	 1.246498457	 2.202264343	 0.330352311
C	 1.118084657	 0.087248862	 0.685116522
H	 2.150057527	 -0.003886783	 0.993758239
C	 0.292902289	 -1.036087368	 0.669107267
H	 0.688496859	 -2.000961486	 0.955377972
C	 -1.042831736	 -0.916711123	 0.288189637
H	 -1.682709560	 -1.788488247	 0.279349028
C	 -1.553588379	 0.327348987	 -0.079943171
H	 -2.589234948	 0.420289081	 -0.377346195
C	 -0.728041637	 1.450843156	 -0.066848338
H	 -1.123623792	 2.415658650	 -0.353861434
C	 0.437498766	 -0.298856839	 3.861359105
O	 1.632991440	 -0.134906093	 3.937874882
O	 -0.142002906	 -1.510261800	 4.060797462
H	 0.592447952	 -2.111370294	 4.253835577
C	 -0.584385462	 0.745074678	 3.540677925
H	 -0.106091042	 1.716021030	 3.493855154
H	 -1.037185564	 0.511878490	 2.577969878
H	 -1.369236476	 0.739538178	 4.293177405
