20
0  1  0  1  0  1  12   8 26.85930 28.37040 25.13458 23.62348 24.98927 24.18231 45.28676 45.28871 45.24756 25.36594 -32.74431 91.25843 -12.67006 -20.47810
C	 -0.105338704	 -0.706037221	 -1.196760050
H	 -0.189962158	 -1.253638989	 -2.125472910
C	 -0.207625066	 0.684059675	 -1.197760593
H	 -0.380861379	 1.213583102	 -2.124112330
C	 -0.100580354	 1.389644084	 -0.000364003
H	 -0.180226918	 2.468107962	 0.000000000
C	 0.105209061	 0.706558345	 1.197375077
H	 0.184825987	 1.255019339	 2.126013232
C	 0.206872792	 -0.684032946	 1.197508770
H	 0.368389280	 -1.214401380	 2.126094783
C	 0.102700077	 -1.390186417	 -0.000169554
H	 0.183085399	 -2.468735809	 -0.000492841
C	 -2.762675757	 1.391834549	 0.759193413
O	 -3.319368984	 1.706664212	 -0.266921678
O	 -2.318318327	 2.311060543	 1.653994995
H	 -2.551581189	 3.168926230	 1.269718925
C	 -2.462547746	 -0.000001506	 1.217006015
H	 -2.921930630	 -0.709757429	 0.539578058
H	 -1.383046483	 -0.144390630	 1.223638047
H	 -2.828753817	 -0.144279652	 2.230590824
