20
0  1  0  1  0  1  12   8 -3.21463 -3.04883 -3.51326 -3.67907 -3.56263 -3.63077 -0.30013 -0.30095 -0.30291 -3.26282 -1.57540  2.07181 -0.38768 -3.37154
C	 0.606784959	 1.330421848	 0.316434508
H	 1.246498457	 2.202264343	 0.330352311
C	 1.118084657	 0.087248862	 0.685116522
H	 2.150057527	 -0.003886783	 0.993758239
C	 0.292902289	 -1.036087368	 0.669107267
H	 0.688496859	 -2.000961486	 0.955377972
C	 -1.042831736	 -0.916711123	 0.288189637
H	 -1.682709560	 -1.788488247	 0.279349028
C	 -1.553588379	 0.327348987	 -0.079943171
H	 -2.589234948	 0.420289081	 -0.377346195
C	 -0.728041637	 1.450843156	 -0.066848338
H	 -1.123623792	 2.415658650	 -0.353861434
C	 0.379664289	 -0.213949520	 4.372522904
O	 1.575156963	 -0.049998774	 4.449038681
O	 -0.199837383	 -1.425354481	 4.571961261
H	 0.534613475	 -2.026462975	 4.764999376
C	 -0.642219939	 0.829981997	 4.051841724
H	 -0.163925519	 1.800928349	 4.005018953
H	 -1.095020041	 0.596785809	 3.089133677
H	 -1.427070953	 0.824445497	 4.804341204
