20
0  1  0  1  0  1  12   8 -1.49286 -1.13746 -1.99743 -2.35284 -2.07375 -2.23609  4.12067  4.11469  4.11234 -1.38686 -4.47604 10.79848 -1.65262 -6.05668
C	 -0.105338704	 -0.706037221	 -1.196760050
H	 -0.189962158	 -1.253638989	 -2.125472910
C	 -0.207625066	 0.684059675	 -1.197760593
H	 -0.380861379	 1.213583102	 -2.124112330
C	 -0.100580354	 1.389644084	 -0.000364003
H	 -0.180226918	 2.468107962	 0.000000000
C	 0.105209061	 0.706558345	 1.197375077
H	 0.184825987	 1.255019339	 2.126013232
C	 0.206872792	 -0.684032946	 1.197508770
H	 0.368389280	 -1.214401380	 2.126094783
C	 0.102700077	 -1.390186417	 -0.000169554
H	 0.183085399	 -2.468735809	 -0.000492841
C	 -3.465939114	 1.391835553	 1.106865142
O	 -4.022632341	 1.706665216	 0.080750051
O	 -3.021581684	 2.311061547	 2.001666724
H	 -3.254844546	 3.168927234	 1.617390654
C	 -3.165811103	 -0.000000502	 1.564677744
H	 -3.625193987	 -0.709756425	 0.887249787
H	 -2.086309840	 -0.144389626	 1.571309776
H	 -3.532017174	 -0.144278648	 2.578262553
