20
0  1  0  1  0  1  12   8 -1.50142 -1.04474 -1.86061 -2.31729 -1.93556 -2.15974  5.13085  5.13117  5.12289 -1.36880 -6.30965 13.83251 -1.42192 -7.46973
C	 -0.105338704	 -0.706037221	 -1.196760050
H	 -0.189962158	 -1.253638989	 -2.125472910
C	 -0.207625066	 0.684059675	 -1.197760593
H	 -0.380861379	 1.213583102	 -2.124112330
C	 -0.100580354	 1.389644084	 -0.000364003
H	 -0.180226918	 2.468107962	 0.000000000
C	 0.105209061	 0.706558345	 1.197375077
H	 0.184825987	 1.255019339	 2.126013232
C	 0.206872792	 -0.684032946	 1.197508770
H	 0.368389280	 -1.214401380	 2.126094783
C	 0.102700077	 -1.390186417	 -0.000169554
H	 0.183085399	 -2.468735809	 -0.000492841
C	 -2.678397046	 2.785533218	 -0.546525853
O	 -2.494181266	 3.042710169	 -1.713514202
O	 -2.272976427	 3.612894264	 0.450573764
H	 -1.852594310	 4.360764507	 0.001149494
C	 -3.347457737	 1.564661745	 0.000015497
H	 -3.753537951	 0.979556720	 -0.816345766
H	 -2.612898106	 0.973837346	 0.545509636
H	 -4.133146460	 1.851681288	 0.694702654
