20
0  1  0  1  0  1  12   8 -2.77867 -2.42762 -3.23681 -3.58786 -3.32555 -3.47786  2.46961  2.45999  2.45842 -2.66468 -3.65088  7.91040 -1.07341 -5.85079
C	 -3.371688512	 -0.706037221	 1.196760050
H	 -3.287065059	 -1.253638989	 2.125472910
C	 -3.269402151	 0.684059675	 1.197760593
H	 -3.096165838	 1.213583102	 2.124112330
C	 -3.376446862	 1.389644084	 0.000364003
H	 -3.296800299	 2.468107962	 -0.000000000
C	 -3.582236278	 0.706558345	 -1.197375077
H	 -3.661853203	 1.255019339	 -2.126013232
C	 -3.683900008	 -0.684032946	 -1.197508770
H	 -3.845416497	 -1.214401380	 -2.126094783
C	 -3.579727293	 -1.390186417	 0.000169554
H	 -3.660112616	 -2.468735809	 0.000492841
C	 0.263822955	 1.391835804	 0.457804854
O	 0.820516182	 1.706665467	 1.483919945
O	 -0.180534476	 2.311061798	 -0.436996728
H	 0.052728386	 3.168927485	 -0.052720657
C	 -0.036305057	 -0.000000251	 -0.000007748
H	 0.423077828	 -0.709756174	 0.677420209
H	 -1.115806320	 -0.144389375	 -0.006639779
H	 0.329901014	 -0.144278397	 -1.013592556
