20
0  1  0  1  0  1  12   8 43.92075 46.08793 42.66854 40.50136 42.49506 41.31725 66.26152 66.24981 66.19007 43.11974 -54.27562 136.93302 -14.23323 -25.30443
C	 -0.105338704	 -0.706037221	 -1.196760050
H	 -0.189962158	 -1.253638989	 -2.125472910
C	 -0.207625066	 0.684059675	 -1.197760593
H	 -0.380861379	 1.213583102	 -2.124112330
C	 -0.100580354	 1.389644084	 -0.000364003
H	 -0.180226918	 2.468107962	 0.000000000
C	 0.105209061	 0.706558345	 1.197375077
H	 0.184825987	 1.255019339	 2.126013232
C	 0.206872792	 -0.684032946	 1.197508770
H	 0.368389280	 -1.214401380	 2.126094783
C	 0.102700077	 -1.390186417	 -0.000169554
H	 0.183085399	 -2.468735809	 -0.000492841
C	 -2.333701740	 1.391834549	 -1.705737820
O	 -1.723406618	 1.706664212	 -2.700905842
O	 -2.886443927	 2.311060543	 -0.873512206
H	 -2.670282519	 3.168926230	 -1.267661805
C	 -2.580115079	 -0.000001506	 -1.216913036
H	 -2.223136700	 -0.709757429	 -1.953464263
H	 -2.046107955	 -0.144390630	 -0.278721504
H	 -3.641008307	 -0.144279652	 -1.027264393
