20
0  1  0  1  0  1  12   8 -3.58626 -3.35776 -3.95867 -4.18717 -4.02153 -4.11867  0.22096  0.21682  0.21355 -3.60137 -2.22429  3.54333 -0.57524 -4.34516
C	 0.606784959	 1.330421848	 0.316434508
H	 1.246498457	 2.202264343	 0.330352311
C	 1.118084657	 0.087248862	 0.685116522
H	 2.150057527	 -0.003886783	 0.993758239
C	 0.292902289	 -1.036087368	 0.669107267
H	 0.688496859	 -2.000961486	 0.955377972
C	 -1.042831736	 -0.916711123	 0.288189637
H	 -1.682709560	 -1.788488247	 0.279349028
C	 -1.553588379	 0.327348987	 -0.079943171
H	 -2.589234948	 0.420289081	 -0.377346195
C	 -0.728041637	 1.450843156	 -0.066848338
H	 -1.123623792	 2.415658650	 -0.353861434
C	 0.398942448	 -0.242251959	 4.202134971
O	 1.594435122	 -0.078301213	 4.278650748
O	 -0.180559224	 -1.453656920	 4.401573328
H	 0.553891634	 -2.054765414	 4.594611443
C	 -0.622941780	 0.801679558	 3.881453791
H	 -0.144647360	 1.772625910	 3.834631020
H	 -1.075741882	 0.568483370	 2.918745744
H	 -1.407792794	 0.796143058	 4.633953271
