20
0  1  0  1  0  1  12   8 -2.60777 -2.29450 -3.01576 -3.32903 -3.09638 -3.23161  2.06106  2.05537  2.05364 -2.52629 -3.39056  6.96397 -0.96336 -5.13633
C	 -3.371688512	 -0.706037221	 1.196760050
H	 -3.287065059	 -1.253638989	 2.125472910
C	 -3.269402151	 0.684059675	 1.197760593
H	 -3.096165838	 1.213583102	 2.124112330
C	 -3.376446862	 1.389644084	 0.000364003
H	 -3.296800299	 2.468107962	 -0.000000000
C	 -3.582236278	 0.706558345	 -1.197375077
H	 -3.661853203	 1.255019339	 -2.126013232
C	 -3.683900008	 -0.684032946	 -1.197508770
H	 -3.845416497	 -1.214401380	 -2.126094783
C	 -3.579727293	 -1.390186417	 0.000169554
H	 -3.660112616	 -2.468735809	 0.000492841
C	 0.586338929	 1.189859040	 0.546533602
O	 0.716952813	 1.477983060	 1.713521951
O	 1.100144303	 1.954644119	 -0.450566015
H	 1.537627873	 2.692640832	 -0.001141745
C	 -0.136436436	 -0.000000251	 -0.000007748
H	 -0.440112144	 -0.644228546	 0.816353515
H	 -1.015385191	 0.340734850	 -0.545501887
H	 0.504974141	 -0.536916873	 -0.694694905
