20
0  1  0  1  0  1  12   8 -1.78104 -1.70194 -1.93454 -2.01364 -1.96206 -1.99143 -0.20168 -0.19933 -0.19827 -1.82498 -0.77429  0.95135 -0.20093 -1.80111
C	 -0.105338704	 -0.706037221	 -1.196760050
H	 -0.189962158	 -1.253638989	 -2.125472910
C	 -0.207625066	 0.684059675	 -1.197760593
H	 -0.380861379	 1.213583102	 -2.124112330
C	 -0.100580354	 1.389644084	 -0.000364003
H	 -0.180226918	 2.468107962	 0.000000000
C	 0.105209061	 0.706558345	 1.197375077
H	 0.184825987	 1.255019339	 2.126013232
C	 0.206872792	 -0.684032946	 1.197508770
H	 0.368389280	 -1.214401380	 2.126094783
C	 0.102700077	 -1.390186417	 -0.000169554
H	 0.183085399	 -2.468735809	 -0.000492841
C	 -4.575505833	 -0.722505176	 -0.546556847
O	 -4.706119716	 -0.434381156	 -1.713545196
O	 -5.089311208	 0.042279902	 0.450542770
H	 -5.526794778	 0.780276616	 0.001118500
C	 -3.852730469	 -1.912364467	 -0.000015497
H	 -3.549054760	 -2.556592762	 -0.816376760
H	 -2.973781714	 -1.571629366	 0.545478642
H	 -4.494141046	 -2.449281090	 0.694671660
