20
0  1  0  1  0  1  12   8 -2.81657 -2.58731 -3.12868 -3.35794 -3.19457 -3.28931  0.72241  0.71895  0.71826 -2.79511 -2.31124  4.10448 -0.63183 -3.95652
C	 -3.371688512	 -0.706037221	 1.196760050
H	 -3.287065059	 -1.253638989	 2.125472910
C	 -3.269402151	 0.684059675	 1.197760593
H	 -3.096165838	 1.213583102	 2.124112330
C	 -3.376446862	 1.389644084	 0.000364003
H	 -3.296800299	 2.468107962	 -0.000000000
C	 -3.582236278	 0.706558345	 -1.197375077
H	 -3.661853203	 1.255019339	 -2.126013232
C	 -3.683900008	 -0.684032946	 -1.197508770
H	 -3.845416497	 -1.214401380	 -2.126094783
C	 -3.579727293	 -1.390186417	 0.000169554
H	 -3.660112616	 -2.468735809	 0.000492841
C	 0.762100233	 1.189859291	 0.546541350
O	 0.892714117	 1.477983311	 1.713529699
O	 1.275905607	 1.954644370	 -0.450558267
H	 1.713389177	 2.692641083	 -0.001133997
C	 0.039324868	 0.000000000	 0.000000000
H	 -0.264350840	 -0.644228295	 0.816361263
H	 -0.839623887	 0.340735101	 -0.545494139
H	 0.680735445	 -0.536916622	 -0.694687157
