20
0  1  0  1  0  1  12   8 -1.62352 -1.55716 -1.76029 -1.82666 -1.77930 -1.80633  0.10031  0.10070  0.10153 -1.67963 -0.48328  0.86229 -0.13747 -1.92117
C	 -3.371688512	 -0.706037221	 1.196760050
H	 -3.287065059	 -1.253638989	 2.125472910
C	 -3.269402151	 0.684059675	 1.197760593
H	 -3.096165838	 1.213583102	 2.124112330
C	 -3.376446862	 1.389644084	 0.000364003
H	 -3.296800299	 2.468107962	 -0.000000000
C	 -3.582236278	 0.706558345	 -1.197375077
H	 -3.661853203	 1.255019339	 -2.126013232
C	 -3.683900008	 -0.684032946	 -1.197508770
H	 -3.845416497	 -1.214401380	 -2.126094783
C	 -3.579727293	 -1.390186417	 0.000169554
H	 -3.660112616	 -2.468735809	 0.000492841
C	 0.696090838	 1.220871975	 0.546556847
O	 0.511875059	 1.478048926	 1.713545196
O	 0.290670218	 2.048233021	 -0.450542770
H	 -0.129711899	 2.796103263	 -0.001118500
C	 1.365151528	 0.000000502	 0.000015497
H	 1.771231743	 -0.585104523	 0.816376760
H	 0.630591897	 -0.590823898	 -0.545478642
H	 2.150840251	 0.287020045	 -0.694671660
