20
0  1  0  1  0  1  12   8  6.13184  7.26296  4.75913  3.62800  4.61442  4.04064 20.85247 20.84968 20.84137  6.66392 -19.00002 46.88374 -5.10063 -16.11917
C	 0.606784959	 1.330421848	 0.316434508
H	 1.246498457	 2.202264343	 0.330352311
C	 1.118084657	 0.087248862	 0.685116522
H	 2.150057527	 -0.003886783	 0.993758239
C	 0.292902289	 -1.036087368	 0.669107267
H	 0.688496859	 -2.000961486	 0.955377972
C	 -1.042831736	 -0.916711123	 0.288189637
H	 -1.682709560	 -1.788488247	 0.279349028
C	 -1.553588379	 0.327348987	 -0.079943171
H	 -2.589234948	 0.420289081	 -0.377346195
C	 -0.728041637	 1.450843156	 -0.066848338
H	 -1.123623792	 2.415658650	 -0.353861434
C	 0.495333243	 -0.383764157	 3.350195306
O	 1.690825917	 -0.219813411	 3.426711083
O	 -0.084168429	 -1.595169118	 3.549633663
H	 0.650282429	 -2.196277612	 3.742671778
C	 -0.526550985	 0.660167360	 3.029514126
H	 -0.048256565	 1.631113712	 2.982691355
H	 -0.979351087	 0.426971172	 2.066806079
H	 -1.311401999	 0.654630860	 3.782013606
