20
0  1  0  1  0  1  12   8  9.08178 10.14240  8.43958  7.37895  8.32022  7.76549 21.68593 21.68255 21.65753  9.22821 -19.12651 47.09566 -4.41077 -14.33017
C	 -0.105338704	 -0.706037221	 -1.196760050
H	 -0.189962158	 -1.253638989	 -2.125472910
C	 -0.207625066	 0.684059675	 -1.197760593
H	 -0.380861379	 1.213583102	 -2.124112330
C	 -0.100580354	 1.389644084	 -0.000364003
H	 -0.180226918	 2.468107962	 0.000000000
C	 0.105209061	 0.706558345	 1.197375077
H	 0.184825987	 1.255019339	 2.126013232
C	 0.206872792	 -0.684032946	 1.197508770
H	 0.368389280	 -1.214401380	 2.126094783
C	 0.102700077	 -1.390186417	 -0.000169554
H	 0.183085399	 -2.468735809	 -0.000492841
C	 -2.306582409	 2.611681355	 -0.546510357
O	 -2.122366629	 2.868858306	 -1.713498706
O	 -1.901161790	 3.439042401	 0.450589260
H	 -1.480779673	 4.186912644	 0.001164990
C	 -2.975643100	 1.390809882	 0.000030993
H	 -3.381723314	 0.805704857	 -0.816330270
H	 -2.241083469	 0.799985483	 0.545525132
H	 -3.761331823	 1.677829425	 0.694718150
