20
0  1  0  1  0  1  12   8 -2.69600 -2.52835 -2.93920 -3.10685 -2.99169 -3.05816 -0.00877 -0.00969 -0.00942 -2.71040 -1.63381  2.40109 -0.41986 -3.05782
C	 -3.371688512	 -0.706037221	 1.196760050
H	 -3.287065059	 -1.253638989	 2.125472910
C	 -3.269402151	 0.684059675	 1.197760593
H	 -3.096165838	 1.213583102	 2.124112330
C	 -3.376446862	 1.389644084	 0.000364003
H	 -3.296800299	 2.468107962	 -0.000000000
C	 -3.582236278	 0.706558345	 -1.197375077
H	 -3.661853203	 1.255019339	 -2.126013232
C	 -3.683900008	 -0.684032946	 -1.197508770
H	 -3.845416497	 -1.214401380	 -2.126094783
C	 -3.579727293	 -1.390186417	 0.000169554
H	 -3.660112616	 -2.468735809	 0.000492841
C	 0.937861537	 1.189859542	 0.546549098
O	 1.068475421	 1.477983562	 1.713537447
O	 1.451666911	 1.954644621	 -0.450550519
H	 1.889150481	 2.692641334	 -0.001126249
C	 0.215086172	 0.000000251	 0.000007748
H	 -0.088589536	 -0.644228044	 0.816369011
H	 -0.663862583	 0.340735352	 -0.545486391
H	 0.856496749	 -0.536916371	 -0.694679409
