18
0  1  0  1  0  1   6  12 -2.39756 -2.12634 -2.31064 -2.58186 -2.37544 -2.49844  0.89850  0.89998  0.89130 -2.18726 -3.46126  6.27185 -1.11053 -3.88732
C	 0.160087990	 0.431747664	 -0.488245827
H	 0.936584783	 0.237823073	 -1.214815294
H	 -0.386487173	 1.360299534	 -0.577977956
C	 -0.115079140	 -0.432794688	 0.488389865
H	 0.433768460	 -1.359376324	 0.582584963
H	 -0.893551572	 -0.226466354	 1.209298073
C	 -3.357460099	 -1.724957842	 -0.732236549
H	 -3.876868386	 -1.687619425	 -1.687147175
H	 -3.730802421	 -2.560398737	 -0.147487456
H	 -2.295655802	 -1.885824920	 -0.911233964
C	 -3.512160138	 -0.461968665	 0.079152691
O	 -3.231673454	 -0.413777213	 1.270186438
N	 -3.963863555	 0.619261801	 -0.615260611
H	 -4.127964832	 0.518227198	 -1.599823496
C	 -4.093489179	 1.921309020	 0.000000000
H	 -4.076880733	 1.773558731	 1.075173218
H	 -3.271765305	 2.583976516	 -0.272256779
H	 -5.033729647	 2.385727171	 -0.287245174
