18
0  1  0  1  0  1   6  12 -1.11487 -0.79816 -1.10038 -1.41709 -1.18489 -1.32013  3.71783  3.71584  3.71347 -1.09789 -3.08271  8.22258 -1.13220 -5.10556
C	 -0.394228909	 0.335004720	 -0.488216863
H	 0.161963110	 0.910508373	 -1.214786330
H	 -1.471665998	 0.325932679	 -0.577948992
C	 0.216903166	 -0.335568181	 0.488418829
H	 1.293770201	 -0.323543034	 0.582613927
H	 -0.351018629	 -0.906580916	 1.209327037
C	 -3.357460099	 -1.724957842	 -0.732236549
H	 -3.876868386	 -1.687619425	 -1.687147175
H	 -3.730802421	 -2.560398737	 -0.147487456
H	 -2.295655802	 -1.885824920	 -0.911233964
C	 -3.512160138	 -0.461968665	 0.079152691
O	 -3.231673454	 -0.413777213	 1.270186438
N	 -3.963863555	 0.619261801	 -0.615260611
H	 -4.127964832	 0.518227198	 -1.599823496
C	 -4.093489179	 1.921309020	 0.000000000
H	 -4.076880733	 1.773558731	 1.075173218
H	 -3.271765305	 2.583976516	 -0.272256779
H	 -5.033729647	 2.385727171	 -0.287245174
