18
0  1  0  1  0  1   6  12  2.97668  3.67417  3.16005  2.46257  3.04004  2.70066 10.64294 10.63775 10.62465  3.65662 -10.98885 26.49916 -3.61829 -8.23541
C	 -3.327135322	 -1.021330162	 0.488158933
H	 -4.103632114	 -1.215254752	 1.214728400
H	 -2.780560158	 -0.092778292	 0.577891062
C	 -3.051968192	 -1.885872514	 -0.488476759
H	 -3.600815793	 -2.812454150	 -0.582671857
H	 -2.273495760	 -1.679544180	 -1.209384967
C	 -0.275181517	 -1.724957842	 0.732236549
H	 0.244226770	 -1.687619425	 1.687147175
H	 0.098160805	 -2.560398737	 0.147487456
H	 -1.336985814	 -1.885824920	 0.911233964
C	 -0.120481478	 -0.461968665	 -0.079152691
O	 -0.400968162	 -0.413777213	 -1.270186438
N	 0.331221940	 0.619261801	 0.615260611
H	 0.495323216	 0.518227198	 1.599823496
C	 0.460847563	 1.921309020	 -0.000000000
H	 0.444239117	 1.773558731	 -1.075173218
H	 -0.360876310	 2.583976516	 0.272256779
H	 1.401088032	 2.385727171	 0.287245174
