18
0  1  0  1  0  1   6  12 25.87423 27.30688 25.62425 24.19160 25.45871 24.71005 40.99188 40.98155 40.94336 24.11530 -29.17332 81.93781 -10.94652 -17.70266
C	 -1.181648660	 0.334976182	 -0.488101004
H	 -0.625456641	 0.910479835	 -1.214670471
H	 -2.259085749	 0.325904141	 -0.577833133
C	 -0.570516585	 -0.335596719	 0.488534688
H	 0.506350450	 -0.323571572	 0.582729786
H	 -1.138438380	 -0.906609454	 1.209442896
C	 -3.357460099	 -1.724957842	 -0.732236549
H	 -3.876868386	 -1.687619425	 -1.687147175
H	 -3.730802421	 -2.560398737	 -0.147487456
H	 -2.295655802	 -1.885824920	 -0.911233964
C	 -3.512160138	 -0.461968665	 0.079152691
O	 -3.231673454	 -0.413777213	 1.270186438
N	 -3.963863555	 0.619261801	 -0.615260611
H	 -4.127964832	 0.518227198	 -1.599823496
C	 -4.093489179	 1.921309020	 0.000000000
H	 -4.076880733	 1.773558731	 1.075173218
H	 -3.271765305	 2.583976516	 -0.272256779
H	 -5.033729647	 2.385727171	 -0.287245174
