18
0  1  0  1  0  1   6  12 -1.68964 -1.57195 -1.64315 -1.76084 -1.69394 -1.73330  0.13255  0.13188  0.13025 -1.63820 -0.82261  1.32480 -0.18657 -1.95383
C	 -3.392788868	 0.442704089	 2.281656358
H	 -3.695848540	 0.663008863	 3.295598096
H	 -2.535916677	 0.973566015	 1.890554706
C	 -4.049089186	 -0.443595116	 1.532849764
H	 -4.909044054	 -0.971614551	 1.920577808
H	 -3.736346177	 -0.654145753	 0.519854408
C	 -0.275181517	 -1.724957842	 0.732236549
H	 0.244226770	 -1.687619425	 1.687147175
H	 0.098160805	 -2.560398737	 0.147487456
H	 -1.336985814	 -1.885824920	 0.911233964
C	 -0.120481478	 -0.461968665	 -0.079152691
O	 -0.400968162	 -0.413777213	 -1.270186438
N	 0.331221940	 0.619261801	 0.615260611
H	 0.495323216	 0.518227198	 1.599823496
C	 0.460847563	 1.921309020	 -0.000000000
H	 0.444239117	 1.773558731	 -1.075173218
H	 -0.360876310	 2.583976516	 0.272256779
H	 1.401088032	 2.385727171	 0.287245174
