18
0  1  0  1  0  1   6  12 38.32962 39.96221 38.56823 36.93564 38.41329 37.53475 52.79977 52.79087 52.73334 36.12745 -41.34849 114.47437 -18.43601 -18.56241
C	 -0.633841921	 0.442654536	 -0.471052666
H	 0.395787218	 0.662959310	 -0.715566160
H	 -1.400981983	 0.973516462	 -1.017574925
C	 -0.954177295	 -0.443644669	 0.471723379
H	 -0.188417526	 -0.971664104	 1.022602118
H	 -1.987828512	 -0.654195306	 0.707377666
C	 -3.357460099	 -1.724957842	 -0.732236549
H	 -3.876868386	 -1.687619425	 -1.687147175
H	 -3.730802421	 -2.560398737	 -0.147487456
H	 -2.295655802	 -1.885824920	 -0.911233964
C	 -3.512160138	 -0.461968665	 0.079152691
O	 -3.231673454	 -0.413777213	 1.270186438
N	 -3.963863555	 0.619261801	 -0.615260611
H	 -4.127964832	 0.518227198	 -1.599823496
C	 -4.093489179	 1.921309020	 0.000000000
H	 -4.076880733	 1.773558731	 1.075173218
H	 -3.271765305	 2.583976516	 -0.272256779
H	 -5.033729647	 2.385727171	 -0.287245174
