18
0  1  0  1  0  1   6  12 -2.41403 -2.28953 -2.37393 -2.49842 -2.42122 -2.46565 -0.52468 -0.52272 -0.52223 -2.37959 -1.19580  1.32838 -0.33080 -2.18137
C	 0.015253281	 0.514286335	 4.179696222
H	 0.010371717	 1.256460142	 4.965578793
H	 -0.633279472	 0.682054974	 3.331012658
C	 0.783763585	 -0.572675594	 4.249505835
H	 1.429068550	 -0.744501235	 5.099633699
H	 0.778651598	 -1.307875720	 3.457196556
C	 1.629714821	 0.503012521	 0.270111893
H	 1.641573379	 1.459237915	 -0.248082857
H	 2.315319189	 -0.183554704	 -0.217586349
H	 1.969745637	 0.649360241	 1.293981048
C	 0.261827758	 -0.132861222	 0.314562207
O	 0.099252655	 -1.309616022	 0.611839952
N	 -0.773502253	 0.702512143	 0.022075900
H	 -0.569011376	 1.666556766	 -0.165814339
C	 -2.150012139	 0.265968653	 0.095053281
H	 -2.144737613	 -0.819407453	 0.100912103
H	 -2.640543180	 0.615820352	 1.003604421
H	 -2.707743935	 0.620751103	 -0.768260569
