18
0  1  0  1  0  1   6  12 -1.39718 -1.25999 -1.27791 -1.41510 -1.33403 -1.38040  0.83739  0.83556  0.83675 -1.32653 -0.94647  2.49741 -0.43465 -2.44282
C	 -3.382690273	 2.060516622	 0.488245827
H	 -3.938882291	 2.636020275	 1.214815294
H	 -2.305253183	 2.051444580	 0.577977956
C	 -3.993822348	 1.389943721	 -0.488389865
H	 -5.070689384	 1.401968868	 -0.582584963
H	 -3.425900553	 0.818930986	 -1.209298073
C	 -0.275181517	 -1.724957842	 0.732236549
H	 0.244226770	 -1.687619425	 1.687147175
H	 0.098160805	 -2.560398737	 0.147487456
H	 -1.336985814	 -1.885824920	 0.911233964
C	 -0.120481478	 -0.461968665	 -0.079152691
O	 -0.400968162	 -0.413777213	 -1.270186438
N	 0.331221940	 0.619261801	 0.615260611
H	 0.495323216	 0.518227198	 1.599823496
C	 0.460847563	 1.921309020	 -0.000000000
H	 0.444239117	 1.773558731	 -1.075173218
H	 -0.360876310	 2.583976516	 0.272256779
H	 1.401088032	 2.385727171	 0.287245174
