18
0  1  0  1  0  1   6  12 -1.98249 -1.74132 -1.88506 -2.12622 -1.96144 -2.05765  0.90569  0.90018  0.89795 -1.78167 -2.62570  4.81247 -0.81603 -3.15241
C	 -3.925150029	 -1.293757104	 0.488245827
H	 -4.701646821	 -1.487681694	 1.214815294
H	 -3.378574865	 -0.365205234	 0.577977956
C	 -3.649982899	 -2.158299456	 -0.488389865
H	 -4.198830500	 -3.084881092	 -0.582584963
H	 -2.871510467	 -1.951971122	 -1.209298073
C	 -0.275181517	 -1.724957842	 0.732236549
H	 0.244226770	 -1.687619425	 1.687147175
H	 0.098160805	 -2.560398737	 0.147487456
H	 -1.336985814	 -1.885824920	 0.911233964
C	 -0.120481478	 -0.461968665	 -0.079152691
O	 -0.400968162	 -0.413777213	 -1.270186438
N	 0.331221940	 0.619261801	 0.615260611
H	 0.495323216	 0.518227198	 1.599823496
C	 0.460847563	 1.921309020	 -0.000000000
H	 0.444239117	 1.773558731	 -1.075173218
H	 -0.360876310	 2.583976516	 0.272256779
H	 1.401088032	 2.385727171	 0.287245174
