18
0  1  0  1  0  1   6  12 -2.10687 -1.97523 -2.11680 -2.24844 -2.16367 -2.21290  0.13522  0.13727  0.13676 -2.06061 -1.16573  1.89863 -0.32023 -2.47328
C	 -0.023928816	 0.442704089	 -0.374519510
H	 0.279130856	 0.663008863	 -1.388461248
H	 -0.880801007	 0.973566015	 0.016582142
C	 0.632371502	 -0.443595116	 0.374287084
H	 1.492326369	 -0.971614551	 -0.013440960
H	 0.319628493	 -0.654145753	 1.387282440
C	 -3.357460099	 -1.724957842	 -0.732236549
H	 -3.876868386	 -1.687619425	 -1.687147175
H	 -3.730802421	 -2.560398737	 -0.147487456
H	 -2.295655802	 -1.885824920	 -0.911233964
C	 -3.512160138	 -0.461968665	 0.079152691
O	 -3.231673454	 -0.413777213	 1.270186438
N	 -3.963863555	 0.619261801	 -0.615260611
H	 -4.127964832	 0.518227198	 -1.599823496
C	 -4.093489179	 1.921309020	 0.000000000
H	 -4.076880733	 1.773558731	 1.075173218
H	 -3.271765305	 2.583976516	 -0.272256779
H	 -5.033729647	 2.385727171	 -0.287245174
