18
0  1  0  1  0  1   6  12 -1.95231 -1.45714 -1.79627 -2.29144 -1.90781 -2.13733  3.92528  3.91877  3.90044 -1.56780 -6.17842 13.16273 -1.88316 -6.66896
C	 -0.093358593	 0.520879413	 3.461392608
H	 -0.098240157	 1.263053220	 4.247275179
H	 -0.741891346	 0.688648052	 2.612709044
C	 0.675151711	 -0.566082516	 3.531202221
H	 1.320456676	 -0.737908157	 4.381330085
H	 0.670039724	 -1.301282642	 2.738892942
C	 1.629714821	 0.503012521	 0.270111893
H	 1.641573379	 1.459237915	 -0.248082857
H	 2.315319189	 -0.183554704	 -0.217586349
H	 1.969745637	 0.649360241	 1.293981048
C	 0.261827758	 -0.132861222	 0.314562207
O	 0.099252655	 -1.309616022	 0.611839952
N	 -0.773502253	 0.702512143	 0.022075900
H	 -0.569011376	 1.666556766	 -0.165814339
C	 -2.150012139	 0.265968653	 0.095053281
H	 -2.144737613	 -0.819407453	 0.100912103
H	 -2.640543180	 0.615820352	 1.003604421
H	 -2.707743935	 0.620751103	 -0.768260569
