18
0  1  0  1  0  1   6  12 -1.14161 -1.07586 -1.07407 -1.13982 -1.11031 -1.12676  0.04873  0.04866  0.05012 -1.11949 -0.33772  0.68004 -0.15780 -1.30401
C	 -3.770865689	 2.242162972	 0.488303757
H	 -4.327057707	 2.817666625	 1.214873224
H	 -2.693428599	 2.233090930	 0.578035886
C	 -4.381997764	 1.571590071	 -0.488331935
H	 -5.458864800	 1.583615218	 -0.582527033
H	 -3.814075969	 1.000577336	 -1.209240143
C	 -0.275181517	 -1.724957842	 0.732236549
H	 0.244226770	 -1.687619425	 1.687147175
H	 0.098160805	 -2.560398737	 0.147487456
H	 -1.336985814	 -1.885824920	 0.911233964
C	 -0.120481478	 -0.461968665	 -0.079152691
O	 -0.400968162	 -0.413777213	 -1.270186438
N	 0.331221940	 0.619261801	 0.615260611
H	 0.495323216	 0.518227198	 1.599823496
C	 0.460847563	 1.921309020	 -0.000000000
H	 0.444239117	 1.773558731	 -1.075173218
H	 -0.360876310	 2.583976516	 0.272256779
H	 1.401088032	 2.385727171	 0.287245174
