18
0  1  0  1  0  1   6  12 -1.97606 -1.80498 -1.90127 -2.07234 -1.96413 -2.02729  0.10462  0.09988  0.09846 -1.86034 -1.71160  2.64924 -0.49632 -2.30167
C	 -4.124488265	 -1.384566084	 0.488274792
H	 -4.900985057	 -1.578490674	 1.214844259
H	 -3.577913101	 -0.456014214	 0.578006921
C	 -3.849321135	 -2.249108436	 -0.488360900
H	 -4.398168736	 -3.175690072	 -0.582555998
H	 -3.070848703	 -2.042780102	 -1.209269108
C	 -0.275181517	 -1.724957842	 0.732236549
H	 0.244226770	 -1.687619425	 1.687147175
H	 0.098160805	 -2.560398737	 0.147487456
H	 -1.336985814	 -1.885824920	 0.911233964
C	 -0.120481478	 -0.461968665	 -0.079152691
O	 -0.400968162	 -0.413777213	 -1.270186438
N	 0.331221940	 0.619261801	 0.615260611
H	 0.495323216	 0.518227198	 1.599823496
C	 0.460847563	 1.921309020	 -0.000000000
H	 0.444239117	 1.773558731	 -1.075173218
H	 -0.360876310	 2.583976516	 0.272256779
H	 1.401088032	 2.385727171	 0.287245174
