18
0  1  0  1  0  1   6  12  6.95369  7.70158  7.16999  6.42210  7.07476  6.68414 14.26521 14.25893 14.22741  7.45162 -15.28348 37.91904 -6.16532 -9.01861
C	 -3.169203016	 0.442668694	 -0.981946122
H	 -4.198832155	 0.662973468	 -0.737432627
H	 -2.402062954	 0.973530620	 -0.435423862
C	 -2.848867642	 -0.443630511	 -1.924722167
H	 -3.614627412	 -0.971649946	 -2.475600906
H	 -1.815216425	 -0.654181148	 -2.160376454
C	 -0.275181517	 -1.724957842	 0.732236549
H	 0.244226770	 -1.687619425	 1.687147175
H	 0.098160805	 -2.560398737	 0.147487456
H	 -1.336985814	 -1.885824920	 0.911233964
C	 -0.120481478	 -0.461968665	 -0.079152691
O	 -0.400968162	 -0.413777213	 -1.270186438
N	 0.331221940	 0.619261801	 0.615260611
H	 0.495323216	 0.518227198	 1.599823496
C	 0.460847563	 1.921309020	 -0.000000000
H	 0.444239117	 1.773558731	 -1.075173218
H	 -0.360876310	 2.583976516	 0.272256779
H	 1.401088032	 2.385727171	 0.287245174
