18
0  1  0  1  0  1   6  12  5.70178  6.52206  5.85421  5.03393  5.74282  5.31735 14.22307 14.21756 14.18047  6.57113 -15.82708 37.62867 -5.37568 -9.85479
C	 -0.417018229	 0.431726484	 -0.488158933
H	 0.359478564	 0.237801893	 -1.214728400
H	 -0.963593392	 1.360278354	 -0.577891062
C	 -0.692185359	 -0.432815868	 0.488476759
H	 -0.143337759	 -1.359397504	 0.582671857
H	 -1.470657791	 -0.226487534	 1.209384967
C	 -3.357460099	 -1.724957842	 -0.732236549
H	 -3.876868386	 -1.687619425	 -1.687147175
H	 -3.730802421	 -2.560398737	 -0.147487456
H	 -2.295655802	 -1.885824920	 -0.911233964
C	 -3.512160138	 -0.461968665	 0.079152691
O	 -3.231673454	 -0.413777213	 1.270186438
N	 -3.963863555	 0.619261801	 -0.615260611
H	 -4.127964832	 0.518227198	 -1.599823496
C	 -4.093489179	 1.921309020	 0.000000000
H	 -4.076880733	 1.773558731	 1.075173218
H	 -3.271765305	 2.583976516	 -0.272256779
H	 -5.033729647	 2.385727171	 -0.287245174
