18
0  1  0  1  0  1   6  12 -1.72861 -1.50778 -1.70898 -1.92981 -1.77938 -1.86659  1.90030  1.89917  1.89860 -1.72222 -1.78691  4.52431 -0.67363 -3.78598
C	 -0.197373972	 0.335011854	 -0.488245827
H	 0.358818047	 0.910515507	 -1.214815294
H	 -1.274811061	 0.325939813	 -0.577977956
C	 0.413758103	 -0.335561047	 0.488389865
H	 1.490625138	 -0.323535900	 0.582584963
H	 -0.154163692	 -0.906573782	 1.209298073
C	 -3.357460099	 -1.724957842	 -0.732236549
H	 -3.876868386	 -1.687619425	 -1.687147175
H	 -3.730802421	 -2.560398737	 -0.147487456
H	 -2.295655802	 -1.885824920	 -0.911233964
C	 -3.512160138	 -0.461968665	 0.079152691
O	 -3.231673454	 -0.413777213	 1.270186438
N	 -3.963863555	 0.619261801	 -0.615260611
H	 -4.127964832	 0.518227198	 -1.599823496
C	 -4.093489179	 1.921309020	 0.000000000
H	 -4.076880733	 1.773558731	 1.075173218
H	 -3.271765305	 2.583976516	 -0.272256779
H	 -5.033729647	 2.385727171	 -0.287245174
