18
0  1  0  1  0  1   6  12 -1.97573 -1.88517 -1.95410 -2.04466 -1.98671 -2.01930 -0.66993 -0.66729 -0.66515 -1.95639 -1.05911  1.02533 -0.29409 -1.62853
C	 0.737194209	 0.431768844	 -0.488332721
H	 1.513691002	 0.237844253	 -1.214902188
H	 0.190619046	 1.360320714	 -0.578064850
C	 0.462027079	 -0.432773508	 0.488302971
H	 1.010874679	 -1.359355144	 0.582498069
H	 -0.316445353	 -0.226445174	 1.209211179
C	 -3.357460099	 -1.724957842	 -0.732236549
H	 -3.876868386	 -1.687619425	 -1.687147175
H	 -3.730802421	 -2.560398737	 -0.147487456
H	 -2.295655802	 -1.885824920	 -0.911233964
C	 -3.512160138	 -0.461968665	 0.079152691
O	 -3.231673454	 -0.413777213	 1.270186438
N	 -3.963863555	 0.619261801	 -0.615260611
H	 -4.127964832	 0.518227198	 -1.599823496
C	 -4.093489179	 1.921309020	 0.000000000
H	 -4.076880733	 1.773558731	 1.075173218
H	 -3.271765305	 2.583976516	 -0.272256779
H	 -5.033729647	 2.385727171	 -0.287245174
