18
0  1  0  1  0  1   6  12 36.22925 37.94666 36.40920 34.69179 36.25379 35.32473 52.18780 52.18003 52.11834 35.89857 -47.25936 120.68292 -18.19626 -19.32874
C	 -0.801755708	 0.431712364	 -0.488101004
H	 -0.025258915	 0.237787773	 -1.214670471
H	 -1.348330871	 1.360264234	 -0.577833133
C	 -1.076922838	 -0.432829988	 0.488534688
H	 -0.528075238	 -1.359411624	 0.582729786
H	 -1.855395270	 -0.226501654	 1.209442896
C	 -3.357460099	 -1.724957842	 -0.732236549
H	 -3.876868386	 -1.687619425	 -1.687147175
H	 -3.730802421	 -2.560398737	 -0.147487456
H	 -2.295655802	 -1.885824920	 -0.911233964
C	 -3.512160138	 -0.461968665	 0.079152691
O	 -3.231673454	 -0.413777213	 1.270186438
N	 -3.963863555	 0.619261801	 -0.615260611
H	 -4.127964832	 0.518227198	 -1.599823496
C	 -4.093489179	 1.921309020	 0.000000000
H	 -4.076880733	 1.773558731	 1.075173218
H	 -3.271765305	 2.583976516	 -0.272256779
H	 -5.033729647	 2.385727171	 -0.287245174
