18
0  1  0  1  0  1   6  12 -0.94538 -0.89880 -0.89661 -0.94319 -0.92509 -0.93509 -0.06951 -0.06926 -0.06816 -0.93551 -0.21880  0.34757 -0.09931 -0.96496
C	 -3.964953396	 2.332986147	 0.488332721
H	 -4.521145414	 2.908489800	 1.214902188
H	 -2.887516306	 2.323914105	 0.578064850
C	 -4.576085471	 1.662413246	 -0.488302971
H	 -5.652952507	 1.674438393	 -0.582498069
H	 -4.008163676	 1.091400511	 -1.209211179
C	 -0.275181517	 -1.724957842	 0.732236549
H	 0.244226770	 -1.687619425	 1.687147175
H	 0.098160805	 -2.560398737	 0.147487456
H	 -1.336985814	 -1.885824920	 0.911233964
C	 -0.120481478	 -0.461968665	 -0.079152691
O	 -0.400968162	 -0.413777213	 -1.270186438
N	 0.331221940	 0.619261801	 0.615260611
H	 0.495323216	 0.518227198	 1.599823496
C	 0.460847563	 1.921309020	 -0.000000000
H	 0.444239117	 1.773558731	 -1.075173218
H	 -0.360876310	 2.583976516	 0.272256779
H	 1.401088032	 2.385727171	 0.287245174
