18
0  1  0  1  0  1   6  12 19.45476 20.77860 19.51627 18.19243 19.33418 18.66187 34.14831 34.13274 34.10374 19.88882 -26.21995 68.54132 -6.51795 -15.91461
C	 -2.152604634	 0.442654536	 1.645741049
H	 -2.455664306	 0.662959310	 2.659682787
H	 -1.295732443	 0.973516462	 1.254639397
C	 -2.808904952	 -0.443644669	 0.896934455
H	 -3.668859820	 -0.971664104	 1.284662499
H	 -2.496161943	 -0.654195306	 -0.116060901
C	 -0.275181517	 -1.724957842	 0.732236549
H	 0.244226770	 -1.687619425	 1.687147175
H	 0.098160805	 -2.560398737	 0.147487456
H	 -1.336985814	 -1.885824920	 0.911233964
C	 -0.120481478	 -0.461968665	 -0.079152691
O	 -0.400968162	 -0.413777213	 -1.270186438
N	 0.331221940	 0.619261801	 0.615260611
H	 0.495323216	 0.518227198	 1.599823496
C	 0.460847563	 1.921309020	 -0.000000000
H	 0.444239117	 1.773558731	 -1.075173218
H	 -0.360876310	 2.583976516	 0.272256779
H	 1.401088032	 2.385727171	 0.287245174
