18
0  1  0  1  0  1   6  12 -1.44305 -1.35829 -1.41229 -1.49705 -1.45224 -1.47835 -0.07975 -0.07962 -0.08010 -1.41453 -0.55431  0.73372 -0.11962 -1.47432
C	 -3.569958045	 0.442711168	 2.372501402
H	 -3.873017717	 0.663015942	 3.386443140
H	 -2.713085854	 0.973573094	 1.981399750
C	 -4.226258363	 -0.443588037	 1.623694808
H	 -5.086213231	 -0.971607472	 2.011422852
H	 -3.913515354	 -0.654138674	 0.610699452
C	 -0.275181517	 -1.724957842	 0.732236549
H	 0.244226770	 -1.687619425	 1.687147175
H	 0.098160805	 -2.560398737	 0.147487456
H	 -1.336985814	 -1.885824920	 0.911233964
C	 -0.120481478	 -0.461968665	 -0.079152691
O	 -0.400968162	 -0.413777213	 -1.270186438
N	 0.331221940	 0.619261801	 0.615260611
H	 0.495323216	 0.518227198	 1.599823496
C	 0.460847563	 1.921309020	 -0.000000000
H	 0.444239117	 1.773558731	 -1.075173218
H	 -0.360876310	 2.583976516	 0.272256779
H	 1.401088032	 2.385727171	 0.287245174
