18
0  1  0  1  0  1   6  12  3.38421  4.12190  3.33791  2.60022  3.20889  2.85181 12.53591 12.53252 12.52021  3.99307 -11.58147 28.12923 -2.60847 -9.94622
C	 -0.961185157	 0.442668694	 -0.374374491
H	 -0.658125485	 0.662973468	 -1.388316229
H	 -1.818057348	 0.973530620	 0.016727161
C	 -0.304884839	 -0.443630511	 0.374432103
H	 0.555070028	 -0.971649946	 -0.013295941
H	 -0.617627848	 -0.654181148	 1.387427459
C	 -3.357460099	 -1.724957842	 -0.732236549
H	 -3.876868386	 -1.687619425	 -1.687147175
H	 -3.730802421	 -2.560398737	 -0.147487456
H	 -2.295655802	 -1.885824920	 -0.911233964
C	 -3.512160138	 -0.461968665	 0.079152691
O	 -3.231673454	 -0.413777213	 1.270186438
N	 -3.963863555	 0.619261801	 -0.615260611
H	 -4.127964832	 0.518227198	 -1.599823496
C	 -4.093489179	 1.921309020	 0.000000000
H	 -4.076880733	 1.773558731	 1.075173218
H	 -3.271765305	 2.583976516	 -0.272256779
H	 -5.033729647	 2.385727171	 -0.287245174
