18
0  1  0  1  0  1   6  12 -1.53010 -1.18880 -1.40717 -1.74847 -1.49735 -1.64403  2.47796  2.47251  2.46894 -1.20150 -4.14611  8.62159 -1.34595 -4.33103
C	 -3.725811794	 -1.202948123	 0.488216863
H	 -4.502308586	 -1.396872713	 1.214786330
H	 -3.179236630	 -0.274396253	 0.577948992
C	 -3.450644664	 -2.067490475	 -0.488418829
H	 -3.999492265	 -2.994072111	 -0.582613927
H	 -2.672172232	 -1.861162141	 -1.209327037
C	 -0.275181517	 -1.724957842	 0.732236549
H	 0.244226770	 -1.687619425	 1.687147175
H	 0.098160805	 -2.560398737	 0.147487456
H	 -1.336985814	 -1.885824920	 0.911233964
C	 -0.120481478	 -0.461968665	 -0.079152691
O	 -0.400968162	 -0.413777213	 -1.270186438
N	 0.331221940	 0.619261801	 0.615260611
H	 0.495323216	 0.518227198	 1.599823496
C	 0.460847563	 1.921309020	 -0.000000000
H	 0.444239117	 1.773558731	 -1.075173218
H	 -0.360876310	 2.583976516	 0.272256779
H	 1.401088032	 2.385727171	 0.287245174
