18
0  1  0  1  0  1   6  12 -2.28383 -2.15435 -2.24607 -2.37555 -2.28708 -2.33808 -0.51459 -0.51121 -0.51087 -2.23411 -1.50224  1.87691 -0.44629 -2.16248
C	 0.544825470	 0.431761784	 -0.488303757
H	 1.321322263	 0.237837193	 -1.214873224
H	 -0.001749693	 1.360313654	 -0.578035886
C	 0.269658340	 -0.432780568	 0.488331935
H	 0.818505940	 -1.359362204	 0.582527033
H	 -0.508814092	 -0.226452234	 1.209240143
C	 -3.357460099	 -1.724957842	 -0.732236549
H	 -3.876868386	 -1.687619425	 -1.687147175
H	 -3.730802421	 -2.560398737	 -0.147487456
H	 -2.295655802	 -1.885824920	 -0.911233964
C	 -3.512160138	 -0.461968665	 0.079152691
O	 -3.231673454	 -0.413777213	 1.270186438
N	 -3.963863555	 0.619261801	 -0.615260611
H	 -4.127964832	 0.518227198	 -1.599823496
C	 -4.093489179	 1.921309020	 0.000000000
H	 -4.076880733	 1.773558731	 1.075173218
H	 -3.271765305	 2.583976516	 -0.272256779
H	 -5.033729647	 2.385727171	 -0.287245174
