18
0  1  0  1  0  1   6  12 47.00788 48.77204 47.10497 45.34081 46.96027 45.99138 62.31853 62.30529 62.22791 45.23199 -53.72455 143.55492 -24.86066 -19.73772
C	 -2.793116541	 0.442654536	 -0.800371899
H	 -3.822745680	 0.662959310	 -0.555858404
H	 -2.025976479	 0.973516462	 -0.253849639
C	 -2.472781167	 -0.443644669	 -1.743147944
H	 -3.238540937	 -0.971664104	 -2.294026683
H	 -1.439129950	 -0.654195306	 -1.978802231
C	 -0.275181517	 -1.724957842	 0.732236549
H	 0.244226770	 -1.687619425	 1.687147175
H	 0.098160805	 -2.560398737	 0.147487456
H	 -1.336985814	 -1.885824920	 0.911233964
C	 -0.120481478	 -0.461968665	 -0.079152691
O	 -0.400968162	 -0.413777213	 -1.270186438
N	 0.331221940	 0.619261801	 0.615260611
H	 0.495323216	 0.518227198	 1.599823496
C	 0.460847563	 1.921309020	 -0.000000000
H	 0.444239117	 1.773558731	 -1.075173218
H	 -0.360876310	 2.583976516	 0.272256779
H	 1.401088032	 2.385727171	 0.287245174
