18
0  1  0  1  0  1   6  12 -1.63213 -1.26354 -1.63971 -2.00830 -1.73024 -1.89333  3.58026  3.57888  3.57334 -1.35082 -4.35654  9.74202 -1.07420 -5.66211
C	 -0.586282621	 0.442682852	 -0.374432499
H	 -0.283222949	 0.662987626	 -1.388374237
H	 -1.443154812	 0.973544778	 0.016669153
C	 0.070017697	 -0.443616353	 0.374374095
H	 0.929972564	 -0.971635788	 -0.013353949
H	 -0.242725312	 -0.654166990	 1.387369451
C	 -3.357460099	 -1.724957842	 -0.732236549
H	 -3.876868386	 -1.687619425	 -1.687147175
H	 -3.730802421	 -2.560398737	 -0.147487456
H	 -2.295655802	 -1.885824920	 -0.911233964
C	 -3.512160138	 -0.461968665	 0.079152691
O	 -3.231673454	 -0.413777213	 1.270186438
N	 -3.963863555	 0.619261801	 -0.615260611
H	 -4.127964832	 0.518227198	 -1.599823496
C	 -4.093489179	 1.921309020	 0.000000000
H	 -4.076880733	 1.773558731	 1.075173218
H	 -3.271765305	 2.583976516	 -0.272256779
H	 -5.033729647	 2.385727171	 -0.287245174
