18
0  1  0  1  0  1   6  12 -2.28094 -2.09582 -2.28800 -2.47312 -2.34734 -2.42081  0.68561  0.68697  0.68518 -2.18775 -1.75803  3.29137 -0.47161 -3.24948
C	 -0.211380084	 0.442697010	 -0.374490506
H	 0.091679588	 0.663001784	 -1.388432244
H	 -1.068252275	 0.973558936	 0.016611146
C	 0.444920234	 -0.443602195	 0.374316088
H	 1.304875101	 -0.971621630	 -0.013411956
H	 0.132177225	 -0.654152832	 1.387311444
C	 -3.357460099	 -1.724957842	 -0.732236549
H	 -3.876868386	 -1.687619425	 -1.687147175
H	 -3.730802421	 -2.560398737	 -0.147487456
H	 -2.295655802	 -1.885824920	 -0.911233964
C	 -3.512160138	 -0.461968665	 0.079152691
O	 -3.231673454	 -0.413777213	 1.270186438
N	 -3.963863555	 0.619261801	 -0.615260611
H	 -4.127964832	 0.518227198	 -1.599823496
C	 -4.093489179	 1.921309020	 0.000000000
H	 -4.076880733	 1.773558731	 1.075173218
H	 -3.271765305	 2.583976516	 -0.272256779
H	 -5.033729647	 2.385727171	 -0.287245174
