18
0  1  0  1  0  1   6  12 -1.42754 -1.34945 -1.42004 -1.49813 -1.45657 -1.48017  0.12827  0.12784  0.12885 -1.44123 -0.40931  0.72522 -0.16794 -1.58920
C	 0.393190841	 0.335033258	 -0.488332721
H	 0.949382860	 0.910536911	 -1.214902188
H	 -0.684246248	 0.325961217	 -0.578064850
C	 1.004322916	 -0.335539643	 0.488302971
H	 2.081189951	 -0.323514496	 0.582498069
H	 0.436401121	 -0.906552378	 1.209211179
C	 -3.357460099	 -1.724957842	 -0.732236549
H	 -3.876868386	 -1.687619425	 -1.687147175
H	 -3.730802421	 -2.560398737	 -0.147487456
H	 -2.295655802	 -1.885824920	 -0.911233964
C	 -3.512160138	 -0.461968665	 0.079152691
O	 -3.231673454	 -0.413777213	 1.270186438
N	 -3.963863555	 0.619261801	 -0.615260611
H	 -4.127964832	 0.518227198	 -1.599823496
C	 -4.093489179	 1.921309020	 0.000000000
H	 -4.076880733	 1.773558731	 1.075173218
H	 -3.271765305	 2.583976516	 -0.272256779
H	 -5.033729647	 2.385727171	 -0.287245174
