18
0  1  0  1  0  1   6  12  2.59937  3.26219  2.75438  2.09155  2.61490  2.30448 10.68873 10.67409 10.65547  3.15841 -9.08491 23.05661 -2.24331 -8.56998
C	 -2.506942987	 0.442668694	 1.827431137
H	 -2.810002659	 0.662973468	 2.841372875
H	 -1.650070796	 0.973530620	 1.436329485
C	 -3.163243305	 -0.443630511	 1.078624543
H	 -4.023198173	 -0.971649946	 1.466352587
H	 -2.850500296	 -0.654181148	 0.065629187
C	 -0.275181517	 -1.724957842	 0.732236549
H	 0.244226770	 -1.687619425	 1.687147175
H	 0.098160805	 -2.560398737	 0.147487456
H	 -1.336985814	 -1.885824920	 0.911233964
C	 -0.120481478	 -0.461968665	 -0.079152691
O	 -0.400968162	 -0.413777213	 -1.270186438
N	 0.331221940	 0.619261801	 0.615260611
H	 0.495323216	 0.518227198	 1.599823496
C	 0.460847563	 1.921309020	 -0.000000000
H	 0.444239117	 1.773558731	 -1.075173218
H	 -0.360876310	 2.583976516	 0.272256779
H	 1.401088032	 2.385727171	 0.287245174
