18
0  1  0  1  0  1   6  12 -1.81204 -1.65698 -1.79432 -1.94937 -1.85188 -1.90805  0.91629  0.91563  0.91608 -1.81579 -1.05774  2.47253 -0.41161 -2.81898
C	 -0.000519034	 0.335018989	 -0.488274792
H	 0.555672985	 0.910522642	 -1.214844259
H	 -1.077956123	 0.325946948	 -0.578006921
C	 0.610613041	 -0.335553912	 0.488360900
H	 1.687480076	 -0.323528765	 0.582555998
H	 0.042691246	 -0.906566647	 1.209269108
C	 -3.357460099	 -1.724957842	 -0.732236549
H	 -3.876868386	 -1.687619425	 -1.687147175
H	 -3.730802421	 -2.560398737	 -0.147487456
H	 -2.295655802	 -1.885824920	 -0.911233964
C	 -3.512160138	 -0.461968665	 0.079152691
O	 -3.231673454	 -0.413777213	 1.270186438
N	 -3.963863555	 0.619261801	 -0.615260611
H	 -4.127964832	 0.518227198	 -1.599823496
C	 -4.093489179	 1.921309020	 0.000000000
H	 -4.076880733	 1.773558731	 1.075173218
H	 -3.271765305	 2.583976516	 -0.272256779
H	 -5.033729647	 2.385727171	 -0.287245174
