18
0  1  0  1  0  1   6  12 -2.49032 -2.30330 -2.43051 -2.61753 -2.48235 -2.56174 -0.08032 -0.07731 -0.08025 -2.38408 -2.23093  3.43270 -0.69477 -2.89106
C	 0.352456730	 0.431754724	 -0.488274792
H	 1.128953523	 0.237830133	 -1.214844259
H	 -0.194118433	 1.360306594	 -0.578006921
C	 0.077289600	 -0.432787628	 0.488360900
H	 0.626137200	 -1.359369264	 0.582555998
H	 -0.701182832	 -0.226459294	 1.209269108
C	 -3.357460099	 -1.724957842	 -0.732236549
H	 -3.876868386	 -1.687619425	 -1.687147175
H	 -3.730802421	 -2.560398737	 -0.147487456
H	 -2.295655802	 -1.885824920	 -0.911233964
C	 -3.512160138	 -0.461968665	 0.079152691
O	 -3.231673454	 -0.413777213	 1.270186438
N	 -3.963863555	 0.619261801	 -0.615260611
H	 -4.127964832	 0.518227198	 -1.599823496
C	 -4.093489179	 1.921309020	 0.000000000
H	 -4.076880733	 1.773558731	 1.075173218
H	 -3.271765305	 2.583976516	 -0.272256779
H	 -5.033729647	 2.385727171	 -0.287245174
