18
0  1  0  1  0  1   6  12  6.29601  7.04883  6.47771  5.72489  6.36681  5.98829 14.17170 14.16543 14.14787  6.65504 -13.21746 34.46316 -5.40778 -9.18287
C	 -0.228372138	 0.442668694	 -0.471110524
H	 0.801257001	 0.662973468	 -0.715624018
H	 -0.995512200	 0.973530620	 -1.017632783
C	 -0.548707512	 -0.443630511	 0.471665521
H	 0.217052257	 -0.971649946	 1.022544260
H	 -1.582358729	 -0.654181148	 0.707319808
C	 -3.357460099	 -1.724957842	 -0.732236549
H	 -3.876868386	 -1.687619425	 -1.687147175
H	 -3.730802421	 -2.560398737	 -0.147487456
H	 -2.295655802	 -1.885824920	 -0.911233964
C	 -3.512160138	 -0.461968665	 0.079152691
O	 -3.231673454	 -0.413777213	 1.270186438
N	 -3.963863555	 0.619261801	 -0.615260611
H	 -4.127964832	 0.518227198	 -1.599823496
C	 -4.093489179	 1.921309020	 0.000000000
H	 -4.076880733	 1.773558731	 1.075173218
H	 -3.271765305	 2.583976516	 -0.272256779
H	 -5.033729647	 2.385727171	 -0.287245174
