18
0  1  0  1  0  1   6  12 -1.89155 -1.65825 -1.79858 -2.03188 -1.87885 -1.96964  1.40252  1.39727  1.39177 -1.74016 -2.00916  4.24099 -0.48438 -3.48761
C	 -3.038450516	 0.442689931	 2.099966270
H	 -3.341510188	 0.662994705	 3.113908008
H	 -2.181578325	 0.973551857	 1.708864618
C	 -3.694750834	 -0.443609274	 1.351159676
H	 -4.554705702	 -0.971628709	 1.738887720
H	 -3.382007825	 -0.654159911	 0.338164320
C	 -0.275181517	 -1.724957842	 0.732236549
H	 0.244226770	 -1.687619425	 1.687147175
H	 0.098160805	 -2.560398737	 0.147487456
H	 -1.336985814	 -1.885824920	 0.911233964
C	 -0.120481478	 -0.461968665	 -0.079152691
O	 -0.400968162	 -0.413777213	 -1.270186438
N	 0.331221940	 0.619261801	 0.615260611
H	 0.495323216	 0.518227198	 1.599823496
C	 0.460847563	 1.921309020	 -0.000000000
H	 0.444239117	 1.773558731	 -1.075173218
H	 -0.360876310	 2.583976516	 0.272256779
H	 1.401088032	 2.385727171	 0.287245174
