18
0  1  0  1  0  1   6  12 -1.98359 -1.81556 -1.89009 -2.05812 -1.94604 -2.01197  0.24251  0.24134  0.23863 -1.93411 -1.54072  2.71147 -0.58397 -2.52089
C	 0.582567428	 0.442697010	 -0.471226241
H	 1.612196567	 0.663001784	 -0.715739735
H	 -0.184572634	 0.973558936	 -1.017748500
C	 0.262232054	 -0.443602195	 0.471549804
H	 1.027991823	 -0.971621630	 1.022428543
H	 -0.771419163	 -0.654152832	 0.707204091
C	 -3.357460099	 -1.724957842	 -0.732236549
H	 -3.876868386	 -1.687619425	 -1.687147175
H	 -3.730802421	 -2.560398737	 -0.147487456
H	 -2.295655802	 -1.885824920	 -0.911233964
C	 -3.512160138	 -0.461968665	 0.079152691
O	 -3.231673454	 -0.413777213	 1.270186438
N	 -3.963863555	 0.619261801	 -0.615260611
H	 -4.127964832	 0.518227198	 -1.599823496
C	 -4.093489179	 1.921309020	 0.000000000
H	 -4.076880733	 1.773558731	 1.075173218
H	 -3.271765305	 2.583976516	 -0.272256779
H	 -5.033729647	 2.385727171	 -0.287245174
