18
0  1  0  1  0  1   6  12 -1.61486 -1.55473 -1.57185 -1.63198 -1.59686 -1.61559 -0.66603 -0.66488 -0.66115 -1.62187 -0.74536  0.57364 -0.26671 -1.18344
C	 -4.297462441	 0.442711168	 -1.526668790
H	 -5.327091580	 0.663015942	 -1.282155295
H	 -3.530322379	 0.973573094	 -0.980146530
C	 -3.977127067	 -0.443588037	 -2.469444835
H	 -4.742886837	 -0.971607472	 -3.020323574
H	 -2.943475850	 -0.654138674	 -2.705099122
C	 -0.275181517	 -1.724957842	 0.732236549
H	 0.244226770	 -1.687619425	 1.687147175
H	 0.098160805	 -2.560398737	 0.147487456
H	 -1.336985814	 -1.885824920	 0.911233964
C	 -0.120481478	 -0.461968665	 -0.079152691
O	 -0.400968162	 -0.413777213	 -1.270186438
N	 0.331221940	 0.619261801	 0.615260611
H	 0.495323216	 0.518227198	 1.599823496
C	 0.460847563	 1.921309020	 -0.000000000
H	 0.444239117	 1.773558731	 -1.075173218
H	 -0.360876310	 2.583976516	 0.272256779
H	 1.401088032	 2.385727171	 0.287245174
