18
0  1  0  1  0  1   6  12 -1.77048 -1.64899 -1.71514 -1.83663 -1.76467 -1.80662 -0.26954 -0.27252 -0.27335 -1.70539 -1.15400  1.44022 -0.30437 -1.68724
C	 -4.323826501	 -1.475375064	 0.488303757
H	 -5.100323293	 -1.669299654	 1.214873224
H	 -3.777251337	 -0.546823194	 0.578035886
C	 -4.048659371	 -2.339917416	 -0.488331935
H	 -4.597506972	 -3.266499052	 -0.582527033
H	 -3.270186939	 -2.133589082	 -1.209240143
C	 -0.275181517	 -1.724957842	 0.732236549
H	 0.244226770	 -1.687619425	 1.687147175
H	 0.098160805	 -2.560398737	 0.147487456
H	 -1.336985814	 -1.885824920	 0.911233964
C	 -0.120481478	 -0.461968665	 -0.079152691
O	 -0.400968162	 -0.413777213	 -1.270186438
N	 0.331221940	 0.619261801	 0.615260611
H	 0.495323216	 0.518227198	 1.599823496
C	 0.460847563	 1.921309020	 -0.000000000
H	 0.444239117	 1.773558731	 -1.075173218
H	 -0.360876310	 2.583976516	 0.272256779
H	 1.401088032	 2.385727171	 0.287245174
