15
0  1  0  1  0  1  11   4  5.29612  5.99190  5.33022  4.63444  5.29481  4.90476 10.15038 10.14751 10.12790  4.25659 -22.36144 45.47238 -10.84804 -8.00632
N	 -2.252967242	 0.000000000	 -0.000000000
C	 -2.949511428	 1.144910936	 0.000000000
H	 -2.365251950	 2.055683549	 0.045060447
C	 -4.339254684	 1.200511554	 -0.053934788
H	 -4.843075225	 2.156364025	 -0.051326396
C	 -5.053720371	 0.008511636	 -0.111034720
H	 -6.133959083	 0.011791357	 -0.153229018
C	 -4.344142765	 -1.187782763	 -0.112539856
H	 -4.851957623	 -2.140483524	 -0.156723878
C	 -2.954206079	 -1.140639721	 -0.056151446
H	 -2.373738230	 -2.054882189	 -0.055990653
C	 1.367491044	 -1.147173072	 -0.061562527
H	 2.284607703	 -1.680468342	 -0.091010128
C	 0.318842024	 -0.537513500	 -0.028010873
H	 -0.607130750	 0.000000000	 -0.000000000
