15
0  1  0  1  0  1  11   4 -3.59220 -3.46102 -3.58846 -3.71964 -3.61186 -3.67635 -2.38305 -2.38274 -2.38790 -3.67791 -4.06442  3.40456 -1.11465 -1.90341
N	 0.000000000	 0.000000000	 0.000000000
C	 0.696544186	 1.144910936	 0.000000000
H	 0.112284709	 2.055683549	 -0.045060447
C	 2.086287442	 1.200511554	 0.053934788
H	 2.590107983	 2.156364025	 0.051326396
C	 2.800753130	 0.008511636	 0.111034720
H	 3.880991842	 0.011791357	 0.153229018
C	 2.091175523	 -1.187782763	 0.112539856
H	 2.598990381	 -2.140483524	 0.156723878
C	 0.701238837	 -1.140639721	 0.056151446
H	 0.120770988	 -2.054882189	 0.055990653
C	 -4.114650632	 -0.006170126	 -2.271322676
H	 -5.048135552	 -0.009459048	 -2.776267285
C	 -3.047397701	 -0.002513959	 -1.693886022
H	 -2.106162511	 -0.000000000	 -1.182807802
