15
0  1  0  1  0  1  11   4 -3.39238 -3.26515 -3.36934 -3.49657 -3.38952 -3.45164 -2.19531 -2.19367 -2.19422 -3.49461 -4.02335  3.45578 -1.03177 -1.89527
N	 -2.252967242	 0.000000000	 -0.000000000
C	 -2.949511428	 1.144910936	 0.000000000
H	 -2.365251950	 2.055683549	 0.045060447
C	 -4.339254684	 1.200511554	 -0.053934788
H	 -4.843075225	 2.156364025	 -0.051326396
C	 -5.053720371	 0.008511636	 -0.111034720
H	 -6.133959083	 0.011791357	 -0.153229018
C	 -4.344142765	 -1.187782763	 -0.112539856
H	 -4.851957623	 -2.140483524	 -0.156723878
C	 -2.954206079	 -1.140639721	 -0.056151446
H	 -2.373738230	 -2.054882189	 -0.055990653
C	 2.193628106	 1.136486100	 -0.061562527
H	 3.114033687	 1.664084790	 -0.091010128
C	 1.141322919	 0.533159196	 -0.028010873
H	 0.212836186	 -0.000000000	 -0.000000000
