15
0  1  0  1  0  1  11   4  5.27064  5.94343  5.27851  4.60572  5.24557  4.86762 10.04623 10.04316 10.02411  4.26810 -21.90076 44.44140 -10.45452 -7.81802
N	 -2.252967242	 0.000000000	 -0.000000000
C	 -2.949511428	 1.144910936	 0.000000000
H	 -2.365251950	 2.055683549	 0.045060447
C	 -4.339254684	 1.200511554	 -0.053934788
H	 -4.843075225	 2.156364025	 -0.051326396
C	 -5.053720371	 0.008511636	 -0.111034720
H	 -6.133959083	 0.011791357	 -0.153229018
C	 -4.344142765	 -1.187782763	 -0.112539856
H	 -4.851957623	 -2.140483524	 -0.156723878
C	 -2.954206079	 -1.140639721	 -0.056151446
H	 -2.373738230	 -2.054882189	 -0.055990653
C	 1.350567887	 -0.006170126	 -1.195144298
H	 2.254605207	 -0.009459048	 -1.751093649
C	 0.316866611	 -0.002513959	 -0.559594476
H	 -0.596357706	 -0.000000000	 0.000000000
