15
0  1  0  1  0  1  11   4  3.31746  4.00932  3.22857  2.53671  3.17873  2.80611  8.77983  8.77395  8.77051  2.65005 -18.52880 39.32510 -10.03382 -8.11243
N	 0.000000000	 0.000000000	 0.000000000
C	 0.696544186	 1.144910936	 0.000000000
H	 0.112284709	 2.055683549	 -0.045060447
C	 2.086287442	 1.200511554	 0.053934788
H	 2.590107983	 2.156364025	 0.051326396
C	 2.800753130	 0.008511636	 0.111034720
H	 3.880991842	 0.011791357	 0.153229018
C	 2.091175523	 -1.187782763	 0.112539856
H	 2.598990381	 -2.140483524	 0.156723878
C	 0.701238837	 -1.140639721	 0.056151446
H	 0.120770988	 -2.054882189	 0.055990653
C	 -3.423045652	 1.925024635	 0.061562527
H	 -4.343451233	 2.452623325	 0.091010128
C	 -2.370740465	 1.321697730	 0.028010873
H	 -1.442253732	 0.788538535	 -0.000000000
