15
0  1  0  1  0  1  11   4  5.16224  5.88319  5.20737  4.48642  5.17385  4.76653  9.86494  9.86404  9.84057  3.81323 -24.60119 50.24609 -13.46098 -8.37069
N	 -0.083032490	 0.000714589	 1.055199987
C	 -0.202853764	 -1.141725850	 0.364933690
H	 -0.098485626	 -2.055097952	 0.937432624
C	 -0.446781438	 -1.191763671	 -1.004512261
H	 -0.533649208	 -2.145855109	 -1.504171553
C	 -0.574682087	 0.003439534	 -1.704309480
H	 -0.763683910	 0.004480103	 -2.768726700
C	 -0.453456753	 1.197242545	 -1.000916473
H	 -0.545630798	 2.152272643	 -1.497795085
C	 -0.209311108	 1.144507590	 0.368367296
H	 -0.110167072	 2.056697259	 0.943573961
C	 0.381999224	 -0.003976276	 4.888323497
H	 0.497409268	 -0.003402084	 5.943337319
C	 0.249929461	 -0.004526011	 3.682076197
H	 0.131781345	 -0.004263583	 2.617570723
