15
0  1  0  1  0  1  11   4 -3.94832 -3.80641 -3.91303 -4.05494 -3.93567 -4.00617 -2.70245 -2.70114 -2.70483 -4.06361 -4.86008  4.19060 -1.34775 -2.04637
N	 -0.083032490	 0.000714589	 1.055199987
C	 -0.202853764	 -1.141725850	 0.364933690
H	 -0.098485626	 -2.055097952	 0.937432624
C	 -0.446781438	 -1.191763671	 -1.004512261
H	 -0.533649208	 -2.145855109	 -1.504171553
C	 -0.574682087	 0.003439534	 -1.704309480
H	 -0.763683910	 0.004480103	 -2.768726700
C	 -0.453456753	 1.197242545	 -1.000916473
H	 -0.545630798	 2.152272643	 -1.497795085
C	 -0.209311108	 1.144507590	 0.368367296
H	 -0.110167072	 2.056697259	 0.943573961
C	 0.489406141	 -0.006465363	 5.669508865
H	 0.604816185	 -0.005891171	 6.724522687
C	 0.357336378	 -0.007015098	 4.463261565
H	 0.239188262	 -0.006752670	 3.398756091
