15
0  1  0  1  0  1  11   4 -3.47205 -3.20931 -3.46006 -3.72281 -3.48997 -3.62933 -1.29642 -1.29898 -1.31024 -3.55562 -7.59064 10.32957 -2.89672 -3.39782
N	 0.000000000	 0.000000000	 0.000000000
C	 0.696544186	 1.144910936	 0.000000000
H	 0.112284709	 2.055683549	 -0.045060447
C	 2.086287442	 1.200511554	 0.053934788
H	 2.590107983	 2.156364025	 0.051326396
C	 2.800753130	 0.008511636	 0.111034720
H	 3.880991842	 0.011791357	 0.153229018
C	 2.091175523	 -1.187782763	 0.112539856
H	 2.598990381	 -2.140483524	 0.156723878
C	 0.701238837	 -1.140639721	 0.056151446
H	 0.120770988	 -2.054882189	 0.055990653
C	 -3.813770273	 -0.006170126	 -2.102350133
H	 -4.747255193	 -0.009459048	 -2.607294742
C	 -2.746517342	 -0.002513959	 -1.524913479
H	 -1.805282152	 -0.000000000	 -1.013835259
