15
0  1  0  1  0  1  11   4 -3.38650 -3.24999 -3.39098 -3.52749 -3.42442 -3.48509 -1.90896 -1.91014 -1.91269 -3.45081 -3.33852  2.79629 -0.90813 -2.00044
N	 0.000000000	 0.000000000	 0.000000000
C	 0.696544186	 1.144910936	 0.000000000
H	 0.112284709	 2.055683549	 -0.045060447
C	 2.086287442	 1.200511554	 0.053934788
H	 2.590107983	 2.156364025	 0.051326396
C	 2.800753130	 0.008511636	 0.111034720
H	 3.880991842	 0.011791357	 0.153229018
C	 2.091175523	 -1.187782763	 0.112539856
H	 2.598990381	 -2.140483524	 0.156723878
C	 0.701238837	 -1.140639721	 0.056151446
H	 0.120770988	 -2.054882189	 0.055990653
C	 -4.133330128	 -2.329980874	 0.061562527
H	 -5.050446787	 -2.863276144	 0.091010128
C	 -3.084681108	 -1.720321302	 0.028010873
H	 -2.158708334	 -1.182807802	 -0.000000000
