15
0  1  0  1  0  1  11   4 -3.52940 -3.39721 -3.53817 -3.67036 -3.56202 -3.62710 -2.29217 -2.29198 -2.29778 -3.60595 -3.94750  3.34547 -1.09072 -1.91320
N	 0.000000000	 0.000000000	 0.000000000
C	 0.696544186	 1.144910936	 0.000000000
H	 0.112284709	 2.055683549	 -0.045060447
C	 2.086287442	 1.200511554	 0.053934788
H	 2.590107983	 2.156364025	 0.051326396
C	 2.800753130	 0.008511636	 0.111034720
H	 3.880991842	 0.011791357	 0.153229018
C	 2.091175523	 -1.187782763	 0.112539856
H	 2.598990381	 -2.140483524	 0.156723878
C	 0.701238837	 -1.140639721	 0.056151446
H	 0.120770988	 -2.054882189	 0.055990653
C	 -4.053960110	 -0.006170126	 2.377952100
H	 -4.957997429	 -0.009459048	 2.933901451
C	 -3.020258833	 -0.002513959	 1.742402277
H	 -2.107034516	 -0.000000000	 1.182807802
