15
0  1  0  1  0  1  11   4 -3.10189 -2.99480 -3.11322 -3.22031 -3.14242 -3.18782 -1.87717 -1.87745 -1.87834 -3.17032 -2.72697  1.86801 -0.65945 -1.65191
N	 0.000000000	 0.000000000	 0.000000000
C	 0.696544186	 1.144910936	 0.000000000
H	 0.112284709	 2.055683549	 -0.045060447
C	 2.086287442	 1.200511554	 0.053934788
H	 2.590107983	 2.156364025	 0.051326396
C	 2.800753130	 0.008511636	 0.111034720
H	 3.880991842	 0.011791357	 0.153229018
C	 2.091175523	 -1.187782763	 0.112539856
H	 2.598990381	 -2.140483524	 0.156723878
C	 0.701238837	 -1.140639721	 0.056151446
H	 0.120770988	 -2.054882189	 0.055990653
C	 -4.247190641	 2.375618083	 0.061562527
H	 -5.167596222	 2.903216773	 0.091010128
C	 -3.194885454	 1.772291178	 0.028010873
H	 -2.266398721	 1.239131983	 -0.000000000
