15
0  1  0  1  0  1  11   4 -4.06680 -3.88792 -4.02019 -4.19907 -4.04464 -4.13644 -2.56210 -2.56124 -2.56722 -4.18404 -5.90866  6.01808 -1.82555 -2.46792
N	 -0.083032490	 0.000714589	 1.055199987
C	 -0.202853764	 -1.141725850	 0.364933690
H	 -0.098485626	 -2.055097952	 0.937432624
C	 -0.446781438	 -1.191763671	 -1.004512261
H	 -0.533649208	 -2.145855109	 -1.504171553
C	 -0.574682087	 0.003439534	 -1.704309480
H	 -0.763683910	 0.004480103	 -2.768726700
C	 -0.453456753	 1.197242545	 -1.000916473
H	 -0.545630798	 2.152272643	 -1.497795085
C	 -0.209311108	 1.144507590	 0.368367296
H	 -0.110167072	 2.056697259	 0.943573961
C	 0.474062296	 -0.006109779	 5.557910955
H	 0.589472340	 -0.005535587	 6.612924777
C	 0.341992533	 -0.006659514	 4.351663655
H	 0.223844417	 -0.006397086	 3.287158181
