15
0  1  0  1  0  1  11   4 -3.58339 -3.41096 -3.58256 -3.75500 -3.61984 -3.69988 -1.80335 -1.80558 -1.81009 -3.63726 -4.09349  4.12100 -1.24753 -2.41725
N	 0.000000000	 0.000000000	 0.000000000
C	 0.696544186	 1.144910936	 0.000000000
H	 0.112284709	 2.055683549	 -0.045060447
C	 2.086287442	 1.200511554	 0.053934788
H	 2.590107983	 2.156364025	 0.051326396
C	 2.800753130	 0.008511636	 0.111034720
H	 3.880991842	 0.011791357	 0.153229018
C	 2.091175523	 -1.187782763	 0.112539856
H	 2.598990381	 -2.140483524	 0.156723878
C	 0.701238837	 -1.140639721	 0.056151446
H	 0.120770988	 -2.054882189	 0.055990653
C	 -4.030534493	 -2.273656693	 0.061562527
H	 -4.947651152	 -2.806951963	 0.091010128
C	 -2.981885473	 -1.663997121	 0.028010873
H	 -2.055912699	 -1.126483621	 -0.000000000
