15
0  1  0  1  0  1  11   4 -3.65546 -3.43806 -3.65178 -3.86918 -3.69221 -3.79722 -1.50974 -1.51303 -1.51942 -3.69504 -5.09368  6.05934 -1.73105 -2.92964
N	 0.000000000	 0.000000000	 0.000000000
C	 0.696544186	 1.144910936	 0.000000000
H	 0.112284709	 2.055683549	 -0.045060447
C	 2.086287442	 1.200511554	 0.053934788
H	 2.590107983	 2.156364025	 0.051326396
C	 2.800753130	 0.008511636	 0.111034720
H	 3.880991842	 0.011791357	 0.153229018
C	 2.091175523	 -1.187782763	 0.112539856
H	 2.598990381	 -2.140483524	 0.156723878
C	 0.701238837	 -1.140639721	 0.056151446
H	 0.120770988	 -2.054882189	 0.055990653
C	 -3.927738858	 -2.217332512	 0.061562527
H	 -4.844855517	 -2.750627782	 0.091010128
C	 -2.879089838	 -1.607672940	 0.028010873
H	 -1.953117064	 -1.070159440	 -0.000000000
