15
0  1  0  1  0  1  11   4 -3.72707 -3.61462 -3.70342 -3.81586 -3.72383 -3.77771 -2.69478 -2.69312 -2.69471 -3.83948 -4.04696  2.91427 -1.00430 -1.70249
N	 -0.083032490	 0.000714589	 1.055199987
C	 -0.202853764	 -1.141725850	 0.364933690
H	 -0.098485626	 -2.055097952	 0.937432624
C	 -0.446781438	 -1.191763671	 -1.004512261
H	 -0.533649208	 -2.145855109	 -1.504171553
C	 -0.574682087	 0.003439534	 -1.704309480
H	 -0.763683910	 0.004480103	 -2.768726700
C	 -0.453456753	 1.197242545	 -1.000916473
H	 -0.545630798	 2.152272643	 -1.497795085
C	 -0.209311108	 1.144507590	 0.368367296
H	 -0.110167072	 2.056697259	 0.943573961
C	 0.504749987	 -0.006820947	 5.781106774
H	 0.620160031	 -0.006246754	 6.836120596
C	 0.372680224	 -0.007370682	 4.574859474
H	 0.254532108	 -0.007108253	 3.510354000
