15
0  1  0  1  0  1  11   4 -3.01008 -2.76149 -2.97127 -3.21986 -2.99316 -3.12704 -0.89177 -0.89117 -0.89784 -3.15293 -7.51252 10.22651 -2.54366 -3.32326
N	 -2.252967242	 0.000000000	 -0.000000000
C	 -2.949511428	 1.144910936	 0.000000000
H	 -2.365251950	 2.055683549	 0.045060447
C	 -4.339254684	 1.200511554	 -0.053934788
H	 -4.843075225	 2.156364025	 -0.051326396
C	 -5.053720371	 0.008511636	 -0.111034720
H	 -6.133959083	 0.011791357	 -0.153229018
C	 -4.344142765	 -1.187782763	 -0.112539856
H	 -4.851957623	 -2.140483524	 -0.156723878
C	 -2.954206079	 -1.140639721	 -0.056151446
H	 -2.373738230	 -2.054882189	 -0.055990653
C	 1.823884897	 -0.006170126	 -1.195144298
H	 2.727922217	 -0.009459048	 -1.751093649
C	 0.790183621	 -0.002513959	 -0.559594476
H	 -0.123040696	 -0.000000000	 0.000000000
