15
0  1  0  1  0  1  11   4 -3.38676 -3.18988 -3.34466 -3.54154 -3.36522 -3.46947 -1.66661 -1.66524 -1.67073 -3.51170 -6.03318  7.14586 -1.89651 -2.72787
N	 -2.252967242	 0.000000000	 -0.000000000
C	 -2.949511428	 1.144910936	 0.000000000
H	 -2.365251950	 2.055683549	 0.045060447
C	 -4.339254684	 1.200511554	 -0.053934788
H	 -4.843075225	 2.156364025	 -0.051326396
C	 -5.053720371	 0.008511636	 -0.111034720
H	 -6.133959083	 0.011791357	 -0.153229018
C	 -4.344142765	 -1.187782763	 -0.112539856
H	 -4.851957623	 -2.140483524	 -0.156723878
C	 -2.954206079	 -1.140639721	 -0.056151446
H	 -2.373738230	 -2.054882189	 -0.055990653
C	 1.991137932	 -0.006170126	 1.088514874
H	 2.924622853	 -0.009459048	 1.593459483
C	 0.923885002	 -0.002513959	 0.511078220
H	 -0.017350188	 -0.000000000	 -0.000000000
