15
0  1  0  1  0  1  11   4 -3.43702 -3.28270 -3.40537 -3.55970 -3.42406 -3.50390 -2.02267 -2.02068 -2.02406 -3.55273 -4.84321  4.91119 -1.37936 -2.24135
N	 -2.252967242	 0.000000000	 -0.000000000
C	 -2.949511428	 1.144910936	 0.000000000
H	 -2.365251950	 2.055683549	 0.045060447
C	 -4.339254684	 1.200511554	 -0.053934788
H	 -4.843075225	 2.156364025	 -0.051326396
C	 -5.053720371	 0.008511636	 -0.111034720
H	 -6.133959083	 0.011791357	 -0.153229018
C	 -4.344142765	 -1.187782763	 -0.112539856
H	 -4.851957623	 -2.140483524	 -0.156723878
C	 -2.954206079	 -1.140639721	 -0.056151446
H	 -2.373738230	 -2.054882189	 -0.055990653
C	 2.108801987	 -0.006170126	 1.088514874
H	 3.042286908	 -0.009459048	 1.593459483
C	 1.041549057	 -0.002513959	 0.511078220
H	 0.100313867	 -0.000000000	 -0.000000000
