15
0  1  0  1  0  1  11   4 -1.47130 -1.05425 -1.51772 -1.93477 -1.55256 -1.77839  1.84531  1.84017  1.82863 -1.67689 -11.98448 21.08878 -5.64538 -5.13581
N	 0.000000000	 0.000000000	 0.000000000
C	 0.696544186	 1.144910936	 0.000000000
H	 0.112284709	 2.055683549	 -0.045060447
C	 2.086287442	 1.200511554	 0.053934788
H	 2.590107983	 2.156364025	 0.051326396
C	 2.800753130	 0.008511636	 0.111034720
H	 3.880991842	 0.011791357	 0.153229018
C	 2.091175523	 -1.187782763	 0.112539856
H	 2.598990381	 -2.140483524	 0.156723878
C	 0.701238837	 -1.140639721	 0.056151446
H	 0.120770988	 -2.054882189	 0.055990653
C	 -3.552285225	 -0.006170126	 2.096331195
H	 -4.456322544	 -0.009459048	 2.652280546
C	 -2.518583948	 -0.002513959	 1.460781372
H	 -1.605359631	 -0.000000000	 0.901186897
