18
0  1  0  1  0  1   7  11 -3.30334 -3.10392 -3.54099 -3.74040 -3.60093 -3.68341  0.09106  0.09114  0.08676 -3.26919 -2.61405  3.55264 -0.55237 -3.65542
N	 0.752470207	 -0.166391620	 0.658483185
H	 0.000000000	 0.000000000	 -0.000000000
H	 1.580676957	 0.246410047	 0.249470960
C	 0.439545737	 0.518307792	 1.911643483
H	 1.247234125	 0.357102858	 2.623385303
H	 0.276258991	 1.597454177	 1.825750528
H	 -0.460550903	 0.081437312	 2.341314968
N	 -2.342524829	 1.237390923	 0.000000000
C	 -3.015770878	 0.267114136	 0.635064460
H	 -2.935759736	 -0.723602675	 0.206359415
C	 -3.767352229	 0.478207888	 1.787647836
H	 -4.285334805	 -0.347694365	 2.253795063
C	 -3.828704288	 1.761474960	 2.321033726
H	 -4.399730415	 1.962795282	 3.216741778
C	 -3.135416472	 2.778751901	 1.673659127
H	 -3.149695157	 3.792783045	 2.047028240
C	 -2.412805703	 2.468589752	 0.524767864
H	 -1.862703130	 3.239972752	 0.000000000
