18
0  1  0  1  0  1   7  11 -1.33692 -0.86510 -1.58283 -2.05466 -1.66095 -1.89479  4.19106  4.17776  4.16300 -0.92453 -9.86119 19.45692 -4.14315 -6.37711
N	 0.752470207	 -0.166391620	 0.658483185
H	 0.000000000	 0.000000000	 -0.000000000
H	 1.580676957	 0.246410047	 0.249470960
C	 0.439545737	 0.518307792	 1.911643483
H	 1.247234125	 0.357102858	 2.623385303
H	 0.276258991	 1.597454177	 1.825750528
H	 -0.460550903	 0.081437312	 2.341314968
N	 -1.616192035	 0.000000000	 -0.942774037
C	 -2.018516628	 -1.176907371	 -0.441746976
H	 -1.315162786	 -1.994887726	 -0.530691392
C	 -3.249900606	 -1.369885495	 0.178201798
H	 -3.513834985	 -2.344129115	 0.564079667
C	 -4.118278537	 -0.289219640	 0.292744540
H	 -5.081576415	 -0.400384190	 0.770858821
C	 -3.715119213	 0.938411942	 -0.222015113
H	 -4.351601148	 1.809449330	 -0.158358614
C	 -2.464411354	 1.031109026	 -0.826543954
H	 -2.123469129	 1.974197586	 -1.235650604
