18
0  1  0  1  0  1   7  11 -3.87652 -3.50884 -4.20883 -4.57651 -4.29561 -4.46420  1.33080  1.32290  1.30821 -3.59294 -5.67802  9.22715 -1.51450 -5.62757
N	 -0.541059198	 0.029576202	 -0.208995077
H	 0.055553351	 -0.786118099	 -0.130293346
H	 -1.469669404	 -0.274708452	 0.053143382
C	 -0.078799266	 1.042390365	 0.738458862
H	 -0.720152936	 1.919413767	 0.671980262
H	 -0.050758189	 0.723822930	 1.785514529
H	 0.926430724	 1.356603792	 0.461999188
N	 2.243486663	 -1.236549908	 0.023250100
C	 2.581922979	 -0.424205843	 -0.988462376
H	 2.039255760	 -0.568743824	 -1.913843735
C	 3.553252241	 0.567927952	 -0.888095372
H	 3.778104681	 1.192268239	 -1.740946065
C	 4.214092308	 0.737469390	 0.324169066
H	 4.971946253	 1.499706726	 0.440553195
C	 3.873959399	 -0.097493135	 1.383292019
H	 4.356547805	 -0.007030896	 2.345992673
C	 2.890177834	 -1.062282143	 1.184108638
H	 2.604093504	 -1.726029751	 1.990719295
