18
0  1  0  1  0  1   7  11 -3.25666 -2.87829 -3.47868 -3.85705 -3.55910 -3.73720  1.90394  1.89830  1.88444 -3.06947 -6.56443 10.92307 -1.72390 -5.70422
N	 0.752470207	 -0.166391620	 0.658483185
H	 0.000000000	 0.000000000	 -0.000000000
H	 1.580676957	 0.246410047	 0.249470960
C	 0.439545737	 0.518307792	 1.911643483
H	 1.247234125	 0.357102858	 2.623385303
H	 0.276258991	 1.597454177	 1.825750528
H	 -0.460550903	 0.081437312	 2.341314968
N	 -2.011909360	 -1.060620791	 0.000000000
C	 -1.508248038	 -2.128807366	 0.635064460
H	 -0.610256541	 -2.554874090	 0.206359415
C	 -2.066851265	 -2.674149033	 1.787647836
H	 -1.610590221	 -3.535686229	 2.253795063
C	 -3.208869179	 -2.085647939	 2.321033726
H	 -3.668730756	 -2.479510910	 3.216741778
C	 -3.743212945	 -0.976604608	 1.673659127
H	 -4.628529018	 -0.481954739	 2.047028240
C	 -3.113299260	 -0.505886399	 0.524767864
H	 -3.506285247	 0.356207904	 0.000000000
