18
0  1  0  1  0  1   7  11 -2.57722 -2.29877 -2.95064 -3.22909 -3.03399 -3.14818  1.85798  1.85410  1.85079 -2.44091 -3.20769  6.15700 -0.67968 -4.71053
N	 0.752470207	 -0.166391620	 0.658483185
H	 0.000000000	 0.000000000	 -0.000000000
H	 1.580676957	 0.246410047	 0.249470960
C	 0.439545737	 0.518307792	 1.911643483
H	 1.247234125	 0.357102858	 2.623385303
H	 0.276258991	 1.597454177	 1.825750528
H	 -0.460550903	 0.081437312	 2.341314968
N	 -2.819077215	 0.000000000	 1.119544169
C	 -2.586337348	 -1.176907371	 1.718481018
H	 -2.311688551	 -1.994887726	 1.064886515
C	 -2.665137950	 -1.369885495	 3.094865211
H	 -2.462925102	 -2.344129115	 3.516378023
C	 -3.000129991	 -0.289219640	 3.904173931
H	 -3.067719817	 -0.400384190	 4.977471505
C	 -3.244345266	 0.938411942	 3.297647888
H	 -3.507458088	 1.809449330	 3.880685662
C	 -3.142528670	 1.031109026	 1.912238689
H	 -3.326354309	 1.974197586	 1.412420736
