18
0  1  0  1  0  1   7  11 -3.12055 -2.96516 -3.18876 -3.34416 -3.23290 -3.30015 -0.97847 -0.98371 -0.99064 -3.08938 -2.85568  2.97663 -0.75149 -2.45883
N	 0.752470207	 -0.166391620	 0.658483185
H	 0.000000000	 0.000000000	 -0.000000000
H	 1.580676957	 0.246410047	 0.249470960
C	 0.439545737	 0.518307792	 1.911643483
H	 1.247234125	 0.357102858	 2.623385303
H	 0.276258991	 1.597454177	 1.825750528
H	 -0.460550903	 0.081437312	 2.341314968
N	 -2.121252046	 0.000000000	 -1.237390923
C	 -2.523576639	 -1.176907371	 -0.736363862
H	 -1.820222797	 -1.994887726	 -0.825308278
C	 -3.754960617	 -1.369885495	 -0.116415088
H	 -4.018894996	 -2.344129115	 0.269462781
C	 -4.623338548	 -0.289219640	 -0.001872346
H	 -5.586636426	 -0.400384190	 0.476241935
C	 -4.220179224	 0.938411942	 -0.516631999
H	 -4.856661159	 1.809449330	 -0.452975500
C	 -2.969471365	 1.031109026	 -1.121160840
H	 -2.628529140	 1.974197586	 -1.530267490
