18
0  1  0  1  0  1   7  11 -2.90185 -2.77825 -2.96269 -3.08629 -3.00062 -3.05213 -1.12279 -1.12637 -1.13107 -2.90280 -2.33457  2.03295 -0.55115 -2.05003
N	 0.752470207	 -0.166391620	 0.658483185
H	 0.000000000	 0.000000000	 -0.000000000
H	 1.580676957	 0.246410047	 0.249470960
C	 0.439545737	 0.518307792	 1.911643483
H	 1.247234125	 0.357102858	 2.623385303
H	 0.276258991	 1.597454177	 1.825750528
H	 -0.460550903	 0.081437312	 2.341314968
N	 -2.222264048	 0.000000000	 -1.296314301
C	 -2.624588641	 -1.176907371	 -0.795287240
H	 -1.921234799	 -1.994887726	 -0.884231656
C	 -3.855972619	 -1.369885495	 -0.175338466
H	 -4.119906998	 -2.344129115	 0.210539403
C	 -4.724350550	 -0.289219640	 -0.060795724
H	 -5.687648428	 -0.400384190	 0.417318557
C	 -4.321191226	 0.938411942	 -0.575555377
H	 -4.957673161	 1.809449330	 -0.511898878
C	 -3.070483367	 1.031109026	 -1.180084218
H	 -2.729541142	 1.974197586	 -1.589190868
