18
0  1  0  1  0  1   7  11 -3.49057 -3.12273 -3.62492 -3.99276 -3.69674 -3.87349  1.19926  1.19306  1.17975 -3.39021 -8.28784 12.55195 -2.29545 -5.35887
N	 -3.109405299	 -0.166391620	 -0.658483185
H	 -2.356935092	 -0.000000000	 -0.000000000
H	 -3.937612049	 0.246410047	 -0.249470960
C	 -2.796480829	 0.518307792	 -1.911643483
H	 -3.604169217	 0.357102858	 -2.623385303
H	 -2.633194083	 1.597454177	 -1.825750528
H	 -1.896384189	 0.081437312	 -2.341314968
N	 -0.259209691	 0.000000000	 0.000000000
C	 0.143114903	 -1.176907371	 -0.501027061
H	 -0.560238939	 -1.994887726	 -0.412082645
C	 1.374498880	 -1.369885495	 -1.120975835
H	 1.638433259	 -2.344129115	 -1.506853704
C	 2.242876811	 -0.289219640	 -1.235518577
H	 3.206174689	 -0.400384190	 -1.713632858
C	 1.839717487	 0.938411942	 -0.720758924
H	 2.476199422	 1.809449330	 -0.784415423
C	 0.589009628	 1.031109026	 -0.116230083
H	 0.248067403	 1.974197586	 0.292876567
