18
0  1  0  1  0  1   7  11 -3.84617 -3.61189 -4.08017 -4.31445 -4.14590 -4.24651 -0.23597 -0.23966 -0.24716 -3.75642 -3.47882  4.43399 -0.79005 -3.92154
N	 -0.541059198	 0.029576202	 -0.208995077
H	 0.055553351	 -0.786118099	 -0.130293346
H	 -1.469669404	 -0.274708452	 0.053143382
C	 -0.078799266	 1.042390365	 0.738458862
H	 -0.720152936	 1.919413767	 0.671980262
H	 -0.050758189	 0.723822930	 1.785514529
H	 0.926430724	 1.356603792	 0.461999188
N	 2.473795433	 -1.283963782	 0.039412568
C	 2.812231749	 -0.471619717	 -0.972299908
H	 2.269564530	 -0.616157698	 -1.897681267
C	 3.783561011	 0.520514078	 -0.871932904
H	 4.008413451	 1.144854365	 -1.724783597
C	 4.444401078	 0.690055516	 0.340331534
H	 5.202255023	 1.452292852	 0.456715663
C	 4.104268169	 -0.144907009	 1.399454487
H	 4.586856575	 -0.054444770	 2.362155141
C	 3.120486604	 -1.109696017	 1.200271106
H	 2.834402274	 -1.773443625	 2.006881763
