18
0  1  0  1  0  1   7  11 -0.83326 -0.20806 -1.19285 -1.81805 -1.29836 -1.60943  6.91649  6.90551  6.88033 -0.34608 -12.21362 23.96382 -3.55336 -8.54292
N	 0.752470207	 -0.166391620	 0.658483185
H	 0.000000000	 0.000000000	 -0.000000000
H	 1.580676957	 0.246410047	 0.249470960
C	 0.439545737	 0.518307792	 1.911643483
H	 1.247234125	 0.357102858	 2.623385303
H	 0.276258991	 1.597454177	 1.825750528
H	 -0.460550903	 0.081437312	 2.341314968
N	 -1.788363875	 -0.942774037	 0.000000000
C	 -1.284702553	 -2.010960612	 0.635064460
H	 -0.386711056	 -2.437027336	 0.206359415
C	 -1.843305780	 -2.556302279	 1.787647836
H	 -1.387044736	 -3.417839475	 2.253795063
C	 -2.985323694	 -1.967801185	 2.321033726
H	 -3.445185271	 -2.361664156	 3.216741778
C	 -3.519667460	 -0.858757854	 1.673659127
H	 -4.404983533	 -0.364107985	 2.047028240
C	 -2.889753775	 -0.388039645	 0.524767864
H	 -3.282739762	 0.474054658	 0.000000000
