18
0  1  0  1  0  1   7  11 -3.61334 -3.42665 -3.81505 -4.00173 -3.87176 -3.94886 -0.60076 -0.60285 -0.60750 -3.57866 -2.78471  3.06923 -0.58065 -3.28252
N	 -0.541059198	 0.029576202	 -0.208995077
H	 0.055553351	 -0.786118099	 -0.130293346
H	 -1.469669404	 -0.274708452	 0.053143382
C	 -0.078799266	 1.042390365	 0.738458862
H	 -0.720152936	 1.919413767	 0.671980262
H	 -0.050758189	 0.723822930	 1.785514529
H	 0.926430724	 1.356603792	 0.461999188
N	 2.588949818	 -1.307670720	 0.047493802
C	 2.927386134	 -0.495326655	 -0.964218674
H	 2.384718915	 -0.639864636	 -1.889600033
C	 3.898715396	 0.496807140	 -0.863851670
H	 4.123567836	 1.121147427	 -1.716702363
C	 4.559555463	 0.666348578	 0.348412768
H	 5.317409408	 1.428585914	 0.464796897
C	 4.219422554	 -0.168613947	 1.407535721
H	 4.702010960	 -0.078151708	 2.370236375
C	 3.235640989	 -1.133402955	 1.208352340
H	 2.949556659	 -1.797150563	 2.014962997
