18
0  1  0  1  0  1   7  11  7.33481  8.40048  6.32894  5.26326  6.17882  5.63474 20.60777 20.59139 20.55638  8.41417 -20.45084 49.77728 -7.05571 -13.85656
N	 -3.109405299	 -0.166391620	 -0.658483185
H	 -2.356935092	 -0.000000000	 -0.000000000
H	 -3.937612049	 0.246410047	 -0.249470960
C	 -2.796480829	 0.518307792	 -1.911643483
H	 -3.604169217	 0.357102858	 -2.623385303
H	 -2.633194083	 1.597454177	 -1.825750528
H	 -1.896384189	 0.081437312	 -2.341314968
N	 -0.625975922	 0.000000000	 0.000000000
C	 0.047270127	 -0.970276787	 -0.635064460
H	 -0.032741015	 -1.960993598	 -0.206359415
C	 0.798851478	 -0.759183035	 -1.787647836
H	 1.316834054	 -1.585085288	 -2.253795063
C	 0.860203537	 0.524084037	 -2.321033726
H	 1.431229664	 0.725404359	 -3.216741778
C	 0.166915722	 1.541360978	 -1.673659127
H	 0.181194406	 2.555392122	 -2.047028240
C	 -0.555695048	 1.231198829	 -0.524767864
H	 -1.105797621	 2.002581829	 0.000000000
