18
0  1  0  1  0  1   7  11 -3.07283 -2.91626 -3.27767 -3.43424 -3.32882 -3.39074 -0.26438 -0.26346 -0.26577 -3.07648 -2.06129  2.42572 -0.40361 -3.03730
N	 0.752470207	 -0.166391620	 0.658483185
H	 0.000000000	 0.000000000	 -0.000000000
H	 1.580676957	 0.246410047	 0.249470960
C	 0.439545737	 0.518307792	 1.911643483
H	 1.247234125	 0.357102858	 2.623385303
H	 0.276258991	 1.597454177	 1.825750528
H	 -0.460550903	 0.081437312	 2.341314968
N	 -2.454073631	 1.296314301	 0.000000000
C	 -3.127319680	 0.326037514	 0.635064460
H	 -3.047308538	 -0.664679297	 0.206359415
C	 -3.878901031	 0.537131266	 1.787647836
H	 -4.396883607	 -0.288770987	 2.253795063
C	 -3.940253090	 1.820398338	 2.321033726
H	 -4.511279217	 2.021718660	 3.216741778
C	 -3.246965274	 2.837675279	 1.673659127
H	 -3.261243959	 3.851706423	 2.047028240
C	 -2.524354505	 2.527513130	 0.524767864
H	 -1.974251932	 3.298896130	 0.000000000
