18
0  1  0  1  0  1   7  11 -2.39775 -2.26692 -2.62574 -2.75657 -2.67422 -2.72234  0.03920  0.04001  0.03879 -2.40840 -1.26903  1.70777 -0.25200 -2.59514
N	 -3.109405299	 -0.166391620	 -0.658483185
H	 -2.356935092	 -0.000000000	 -0.000000000
H	 -3.937612049	 0.246410047	 -0.249470960
C	 -2.796480829	 0.518307792	 -1.911643483
H	 -3.604169217	 0.357102858	 -2.623385303
H	 -2.633194083	 1.597454177	 -1.825750528
H	 -1.896384189	 0.081437312	 -2.341314968
N	 0.903662652	 0.000000000	 0.000000000
C	 0.670922786	 -1.176907371	 -0.598936849
H	 0.396273989	 -1.994887726	 0.054657654
C	 0.749723387	 -1.369885495	 -1.975321042
H	 0.547510539	 -2.344129115	 -2.396833854
C	 1.084715428	 -0.289219640	 -2.784629762
H	 1.152305254	 -0.400384190	 -3.857927336
C	 1.328930703	 0.938411942	 -2.178103719
H	 1.592043525	 1.809449330	 -2.761141493
C	 1.227114107	 1.031109026	 -0.792694520
H	 1.410939746	 1.974197586	 -0.292876567
