18
0  1  0  1  0  1   7  11 -0.10431  0.56046 -0.70814 -1.37292 -0.83174 -1.15454  8.84548  8.83220  8.80866  0.59995 -10.61881 23.79397 -3.26808 -9.30712
N	 -3.109405299	 -0.166391620	 -0.658483185
H	 -2.356935092	 -0.000000000	 -0.000000000
H	 -3.937612049	 0.246410047	 -0.249470960
C	 -2.796480829	 0.518307792	 -1.911643483
H	 -3.604169217	 0.357102858	 -2.623385303
H	 -2.633194083	 1.597454177	 -1.825750528
H	 -1.896384189	 0.081437312	 -2.341314968
N	 -0.378696040	 0.000000000	 0.000000000
C	 0.294550009	 -0.970276787	 -0.635064460
H	 0.214538867	 -1.960993598	 -0.206359415
C	 1.046131360	 -0.759183035	 -1.787647836
H	 1.564113936	 -1.585085288	 -2.253795063
C	 1.107483419	 0.524084037	 -2.321033726
H	 1.678509546	 0.725404359	 -3.216741778
C	 0.414195604	 1.541360978	 -1.673659127
H	 0.428474288	 2.555392122	 -2.047028240
C	 -0.308415166	 1.231198829	 -0.524767864
H	 -0.858517739	 2.002581829	 0.000000000
