18
0  1  0  1  0  1   7  11 -2.99883 -2.79498 -3.21643 -3.42028 -3.28114 -3.36370  0.42309  0.41998  0.41495 -2.94687 -2.40722  3.59548 -0.56164 -3.57349
N	 -3.109405299	 -0.166391620	 -0.658483185
H	 -2.356935092	 -0.000000000	 -0.000000000
H	 -3.937612049	 0.246410047	 -0.249470960
C	 -2.796480829	 0.518307792	 -1.911643483
H	 -3.604169217	 0.357102858	 -2.623385303
H	 -2.633194083	 1.597454177	 -1.825750528
H	 -1.896384189	 0.081437312	 -2.341314968
N	 0.239503664	 0.000000000	 0.000000000
C	 0.912749713	 -0.970276787	 -0.635064460
H	 0.832738571	 -1.960993598	 -0.206359415
C	 1.664331064	 -0.759183035	 -1.787647836
H	 2.182313640	 -1.585085288	 -2.253795063
C	 1.725683123	 0.524084037	 -2.321033726
H	 2.296709250	 0.725404359	 -3.216741778
C	 1.032395308	 1.541360978	 -1.673659127
H	 1.046673992	 2.555392122	 -2.047028240
C	 0.309784538	 1.231198829	 -0.524767864
H	 -0.240318035	 2.002581829	 0.000000000
