18
0  1  0  1  0  1   7  11 -3.02556 -2.69713 -3.33451 -3.66294 -3.42036 -3.56555  1.97976  1.97354  1.96180 -2.81627 -4.20774  7.70139 -1.09926 -5.21065
N	 -3.109405299	 -0.166391620	 -0.658483185
H	 -2.356935092	 -0.000000000	 -0.000000000
H	 -3.937612049	 0.246410047	 -0.249470960
C	 -2.796480829	 0.518307792	 -1.911643483
H	 -3.604169217	 0.357102858	 -2.623385303
H	 -2.633194083	 1.597454177	 -1.825750528
H	 -1.896384189	 0.081437312	 -2.341314968
N	 -0.007776218	 0.000000000	 0.000000000
C	 0.665469831	 -0.970276787	 -0.635064460
H	 0.585458689	 -1.960993598	 -0.206359415
C	 1.417051182	 -0.759183035	 -1.787647836
H	 1.935033758	 -1.585085288	 -2.253795063
C	 1.478403241	 0.524084037	 -2.321033726
H	 2.049429368	 0.725404359	 -3.216741778
C	 0.785115426	 1.541360978	 -1.673659127
H	 0.799394110	 2.555392122	 -2.047028240
C	 0.062504656	 1.231198829	 -0.524767864
H	 -0.487597917	 2.002581829	 0.000000000
