18
0  1  0  1  0  1   7  11 -2.21279 -2.09101 -2.41264 -2.53441 -2.45939 -2.50291  0.02223  0.02240  0.02204 -2.23648 -1.28165  1.67509 -0.22733 -2.40259
N	 0.752470207	 -0.166391620	 0.658483185
H	 0.000000000	 0.000000000	 -0.000000000
H	 1.580676957	 0.246410047	 0.249470960
C	 0.439545737	 0.518307792	 1.911643483
H	 1.247234125	 0.357102858	 2.623385303
H	 0.276258991	 1.597454177	 1.825750528
H	 -0.460550903	 0.081437312	 2.341314968
N	 -3.264194670	 0.000000000	 1.296314301
C	 -3.031454803	 -1.176907371	 1.895251150
H	 -2.756806006	 -1.994887726	 1.241656647
C	 -3.110255405	 -1.369885495	 3.271635343
H	 -2.908042557	 -2.344129115	 3.693148155
C	 -3.445247446	 -0.289219640	 4.080944063
H	 -3.512837272	 -0.400384190	 5.154241637
C	 -3.689462721	 0.938411942	 3.474418020
H	 -3.952575543	 1.809449330	 4.057455794
C	 -3.587646125	 1.031109026	 2.089008821
H	 -3.771471764	 1.974197586	 1.589190868
