18
0  1  0  1  0  1   7  11  1.58523  2.26846  0.78359  0.10036  0.64890  0.32771 11.33113 11.32288 11.31326  2.25363 -9.67059 24.67713 -2.78617 -9.96674
N	 -3.109405299	 -0.166391620	 -0.658483185
H	 -2.356935092	 -0.000000000	 -0.000000000
H	 -3.937612049	 0.246410047	 -0.249470960
C	 -2.796480829	 0.518307792	 -1.911643483
H	 -3.604169217	 0.357102858	 -2.623385303
H	 -2.633194083	 1.597454177	 -1.825750528
H	 -1.896384189	 0.081437312	 -2.341314968
N	 0.014408722	 0.000000000	 0.000000000
C	 -0.218331144	 -1.176907371	 -0.598936849
H	 -0.492979941	 -1.994887726	 0.054657654
C	 -0.139530543	 -1.369885495	 -1.975321042
H	 -0.341743391	 -2.344129115	 -2.396833854
C	 0.195461498	 -0.289219640	 -2.784629762
H	 0.263051324	 -0.400384190	 -3.857927336
C	 0.439676773	 0.938411942	 -2.178103719
H	 0.702789595	 1.809449330	 -2.761141493
C	 0.337860177	 1.031109026	 -0.792694520
H	 0.521685816	 1.974197586	 -0.292876567
