18
0  1  0  1  0  1   7  11 12.93357 14.12418 11.61572 10.42511 11.44684 10.84834 28.58055 28.57196 28.55344 13.87749 -21.28717 57.56770 -6.49162 -15.91143
N	 -3.109405299	 -0.166391620	 -0.658483185
H	 -2.356935092	 -0.000000000	 -0.000000000
H	 -3.937612049	 0.246410047	 -0.249470960
C	 -2.796480829	 0.518307792	 -1.911643483
H	 -3.604169217	 0.357102858	 -2.623385303
H	 -2.633194083	 1.597454177	 -1.825750528
H	 -1.896384189	 0.081437312	 -2.341314968
N	 -0.282009255	 0.000000000	 0.000000000
C	 -0.514749121	 -1.176907371	 -0.598936849
H	 -0.789397918	 -1.994887726	 0.054657654
C	 -0.435948520	 -1.369885495	 -1.975321042
H	 -0.638161368	 -2.344129115	 -2.396833854
C	 -0.100956479	 -0.289219640	 -2.784629762
H	 -0.033366653	 -0.400384190	 -3.857927336
C	 0.143258796	 0.938411942	 -2.178103719
H	 0.406371618	 1.809449330	 -2.761141493
C	 0.041442200	 1.031109026	 -0.792694520
H	 0.225267839	 1.974197586	 -0.292876567
