18
0  1  0  1  0  1   7  11  7.11579  8.24647  6.07853  4.94785  5.92842  5.34407 20.45680 20.44023 20.39884  8.24089 -23.89389 55.66426 -9.12317 -14.40631
N	 -0.541059198	 0.029576202	 -0.208995077
H	 0.055553351	 -0.786118099	 -0.130293346
H	 -1.469669404	 -0.274708452	 0.053143382
C	 -0.078799266	 1.042390365	 0.738458862
H	 -0.720152936	 1.919413767	 0.671980262
H	 -0.050758189	 0.723822930	 1.785514529
H	 0.926430724	 1.356603792	 0.461999188
N	 1.667714739	 -1.118015221	 -0.017156070
C	 2.006151055	 -0.305671156	 -1.028868546
H	 1.463483836	 -0.450209137	 -1.954249905
C	 2.977480317	 0.686462639	 -0.928501542
H	 3.202332757	 1.310802926	 -1.781352235
C	 3.638320384	 0.856004077	 0.283762896
H	 4.396174329	 1.618241413	 0.400147025
C	 3.298187475	 0.021041552	 1.342885849
H	 3.780775881	 0.111503791	 2.305586503
C	 2.314405910	 -0.943747456	 1.143702468
H	 2.028321580	 -1.607495064	 1.950313125
