18
0  1  0  1  0  1   7  11 -2.45400 -2.30000 -2.52348 -2.67747 -2.57565 -2.63453 -0.05893 -0.06174 -0.06176 -2.40508 -1.84384  2.35586 -0.34778 -2.56932
N	 -3.109405299	 -0.166391620	 -0.658483185
H	 -2.356935092	 -0.000000000	 -0.000000000
H	 -3.937612049	 0.246410047	 -0.249470960
C	 -2.796480829	 0.518307792	 -1.911643483
H	 -3.604169217	 0.357102858	 -2.623385303
H	 -2.633194083	 1.597454177	 -1.825750528
H	 -1.896384189	 0.081437312	 -2.341314968
N	 0.801217044	 0.000000000	 0.000000000
C	 0.297555722	 -1.068186575	 -0.635064460
H	 -0.600435775	 -1.494253299	 -0.206359415
C	 0.856158949	 -1.613528242	 -1.787647836
H	 0.399897905	 -2.475065438	 -2.253795063
C	 1.998176863	 -1.025027148	 -2.321033726
H	 2.458038440	 -1.418890119	 -3.216741778
C	 2.532520630	 0.084016183	 -1.673659127
H	 3.417836702	 0.578666052	 -2.047028240
C	 1.902606944	 0.554734392	 -0.524767864
H	 2.295592931	 1.416828695	 0.000000000
