18
0  1  0  1  0  1   7  11  6.76987  7.80918  6.14785  5.10854  6.01364  5.47296 18.51451 18.49869 18.45740  7.54380 -23.70088 51.82964 -7.65814 -12.92681
N	 0.752470207	 -0.166391620	 0.658483185
H	 0.000000000	 0.000000000	 -0.000000000
H	 1.580676957	 0.246410047	 0.249470960
C	 0.439545737	 0.518307792	 1.911643483
H	 1.247234125	 0.357102858	 2.623385303
H	 0.276258991	 1.597454177	 1.825750528
H	 -0.460550903	 0.081437312	 2.341314968
N	 -1.564818391	 -0.824927282	 0.000000000
C	 -1.061157069	 -1.893113857	 0.635064460
H	 -0.163165572	 -2.319180581	 0.206359415
C	 -1.619760296	 -2.438455524	 1.787647836
H	 -1.163499252	 -3.299992720	 2.253795063
C	 -2.761778210	 -1.849954430	 2.321033726
H	 -3.221639787	 -2.243817401	 3.216741778
C	 -3.296121976	 -0.740911099	 1.673659127
H	 -4.181438049	 -0.246261230	 2.047028240
C	 -2.666208291	 -0.270192890	 0.524767864
H	 -3.059194278	 0.591901413	 0.000000000
