18
0  1  0  1  0  1   7  11  4.06066  4.80729  3.60624  2.85961  3.51482  3.12676 12.21710 12.20411 12.18213  4.44765 -17.62014 40.39652 -8.74674 -9.58199
N	 0.752470207	 -0.166391620	 0.658483185
H	 0.000000000	 0.000000000	 -0.000000000
H	 1.580676957	 0.246410047	 0.249470960
C	 0.439545737	 0.518307792	 1.911643483
H	 1.247234125	 0.357102858	 2.623385303
H	 0.276258991	 1.597454177	 1.825750528
H	 -0.460550903	 0.081437312	 2.341314968
N	 -1.414168031	 0.000000000	 -0.824927282
C	 -1.816492624	 -1.176907371	 -0.323900221
H	 -1.113138782	 -1.994887726	 -0.412844637
C	 -3.047876602	 -1.369885495	 0.296048553
H	 -3.311810981	 -2.344129115	 0.681926422
C	 -3.916254533	 -0.289219640	 0.410591295
H	 -4.879552411	 -0.400384190	 0.888705576
C	 -3.513095209	 0.938411942	 -0.104168358
H	 -4.149577144	 1.809449330	 -0.040511859
C	 -2.262387350	 1.031109026	 -0.708697199
H	 -1.921445125	 1.974197586	 -1.117803849
