18
0  1  0  1  0  1   7  11 -3.85788 -3.56390 -3.96038 -4.25437 -4.02512 -4.16206  0.06793  0.06326  0.05282 -3.82264 -6.43914  8.74667 -1.66427 -4.46591
N	 -3.109405299	 -0.166391620	 -0.658483185
H	 -2.356935092	 -0.000000000	 -0.000000000
H	 -3.937612049	 0.246410047	 -0.249470960
C	 -2.796480829	 0.518307792	 -1.911643483
H	 -3.604169217	 0.357102858	 -2.623385303
H	 -2.633194083	 1.597454177	 -1.825750528
H	 -1.896384189	 0.081437312	 -2.341314968
N	 -0.142669391	 0.000000000	 0.000000000
C	 0.259655203	 -1.176907371	 -0.501027061
H	 -0.443698639	 -1.994887726	 -0.412082645
C	 1.491039180	 -1.369885495	 -1.120975835
H	 1.754973559	 -2.344129115	 -1.506853704
C	 2.359417111	 -0.289219640	 -1.235518577
H	 3.322714989	 -0.400384190	 -1.713632858
C	 1.956257787	 0.938411942	 -0.720758924
H	 2.592739722	 1.809449330	 -0.784415423
C	 0.705549928	 1.031109026	 -0.116230083
H	 0.364607703	 1.974197586	 0.292876567
