18
0  1  0  1  0  1   7  11 -3.91630 -3.68156 -3.99827 -4.23301 -4.05628 -4.16157 -0.62619 -0.62951 -0.63690 -3.93269 -5.06834  6.08638 -1.22027 -3.73045
N	 -3.109405299	 -0.166391620	 -0.658483185
H	 -2.356935092	 -0.000000000	 -0.000000000
H	 -3.937612049	 0.246410047	 -0.249470960
C	 -2.796480829	 0.518307792	 -1.911643483
H	 -3.604169217	 0.357102858	 -2.623385303
H	 -2.633194083	 1.597454177	 -1.825750528
H	 -1.896384189	 0.081437312	 -2.341314968
N	 -0.026129091	 0.000000000	 0.000000000
C	 0.376195503	 -1.176907371	 -0.501027061
H	 -0.327158339	 -1.994887726	 -0.412082645
C	 1.607579480	 -1.369885495	 -1.120975835
H	 1.871513859	 -2.344129115	 -1.506853704
C	 2.475957411	 -0.289219640	 -1.235518577
H	 3.439255289	 -0.400384190	 -1.713632858
C	 2.072798087	 0.938411942	 -0.720758924
H	 2.709280022	 1.809449330	 -0.784415423
C	 0.822090228	 1.031109026	 -0.116230083
H	 0.481148003	 1.974197586	 0.292876567
