18
0  1  0  1  0  1   7  11 -3.37110 -3.19125 -3.50118 -3.68104 -3.55219 -3.62782 -0.52085 -0.52206 -0.52475 -3.38957 -2.88515  3.29610 -0.63627 -3.16426
N	 0.752470207	 -0.166391620	 0.658483185
H	 0.000000000	 0.000000000	 -0.000000000
H	 1.580676957	 0.246410047	 0.249470960
C	 0.439545737	 0.518307792	 1.911643483
H	 1.247234125	 0.357102858	 2.623385303
H	 0.276258991	 1.597454177	 1.825750528
H	 -0.460550903	 0.081437312	 2.341314968
N	 -2.347227586	 -1.237390923	 0.000000000
C	 -1.843566264	 -2.305577498	 0.635064460
H	 -0.945574767	 -2.731644222	 0.206359415
C	 -2.402169491	 -2.850919165	 1.787647836
H	 -1.945908447	 -3.712456361	 2.253795063
C	 -3.544187405	 -2.262418071	 2.321033726
H	 -4.004048982	 -2.656281042	 3.216741778
C	 -4.078531171	 -1.153374740	 1.673659127
H	 -4.963847244	 -0.658724871	 2.047028240
C	 -3.448617486	 -0.682656531	 0.524767864
H	 -3.841603473	 0.179437772	 0.000000000
