18
0  1  0  1  0  1   7  11  6.12310  7.04304  5.66723  4.74729  5.56433  5.07695 15.78486 15.77434 15.73871  6.11916 -25.25240 52.07658 -9.25039 -11.45463
N	 -3.109405299	 -0.166391620	 -0.658483185
H	 -2.356935092	 -0.000000000	 -0.000000000
H	 -3.937612049	 0.246410047	 -0.249470960
C	 -2.796480829	 0.518307792	 -1.911643483
H	 -3.604169217	 0.357102858	 -2.623385303
H	 -2.633194083	 1.597454177	 -1.825750528
H	 -1.896384189	 0.081437312	 -2.341314968
N	 -0.725370891	 0.000000000	 0.000000000
C	 -0.323046297	 -1.176907371	 -0.501027061
H	 -1.026400139	 -1.994887726	 -0.412082645
C	 0.908337680	 -1.369885495	 -1.120975835
H	 1.172272059	 -2.344129115	 -1.506853704
C	 1.776715611	 -0.289219640	 -1.235518577
H	 2.740013489	 -0.400384190	 -1.713632858
C	 1.373556287	 0.938411942	 -0.720758924
H	 2.010038222	 1.809449330	 -0.784415423
C	 0.122848428	 1.031109026	 -0.116230083
H	 -0.218093797	 1.974197586	 0.292876567
