18
0  1  0  1  0  1   7  11 -2.79600 -2.63534 -2.98320 -3.14387 -3.03899 -3.10081  0.04125  0.03911  0.03629 -2.78639 -1.86021  2.45185 -0.40934 -2.96869
N	 -3.109405299	 -0.166391620	 -0.658483185
H	 -2.356935092	 -0.000000000	 -0.000000000
H	 -3.937612049	 0.246410047	 -0.249470960
C	 -2.796480829	 0.518307792	 -1.911643483
H	 -3.604169217	 0.357102858	 -2.623385303
H	 -2.633194083	 1.597454177	 -1.825750528
H	 -1.896384189	 0.081437312	 -2.341314968
N	 0.363143605	 0.000000000	 0.000000000
C	 1.036389654	 -0.970276787	 -0.635064460
H	 0.956378512	 -1.960993598	 -0.206359415
C	 1.787971005	 -0.759183035	 -1.787647836
H	 2.305953581	 -1.585085288	 -2.253795063
C	 1.849323064	 0.524084037	 -2.321033726
H	 2.420349191	 0.725404359	 -3.216741778
C	 1.156035249	 1.541360978	 -1.673659127
H	 1.170313933	 2.555392122	 -2.047028240
C	 0.433424479	 1.231198829	 -0.524767864
H	 -0.116678094	 2.002581829	 0.000000000
