9
0  1  0  1  0  1   3   6 -2.78207 -2.41554 -2.59293 -2.95946 -2.67872 -2.83837 -0.25020 -0.26521 -0.25892 -2.17030 -6.36603  9.27745 -2.41177 -2.66995
O	 3.127320000	 -1.253510000	 0.106200000
H	 2.168760000	 -1.252130000	 0.000000000
H	 3.372580000	 -2.169570000	 -0.034740000
C	 0.394590142	 1.726102401	 -0.136130000
S	 0.110830142	 -0.063987599	 0.000000000
H	 0.078720142	 -0.116657599	 1.334580000
H	 1.339840142	 2.005302401	 0.317070000
H	 0.437820142	 1.942752401	 -1.199520000
H	 -0.427199858	 2.281142401	 0.303680000
