9
0  1  0  1  0  1   3   6 -0.78418 -0.71058 -0.68145 -0.75506 -0.71008 -0.73476  0.02671  0.03056  0.03369 -0.70543 -0.49761  0.81794 -0.19463 -0.83113
O	 2.649240000	 2.081590000	 0.106200000
H	 2.168760000	 1.252130000	 0.000000000
H	 3.565190000	 1.835950000	 -0.034740000
C	 -0.983229592	 1.058595654	 -0.136130000
S	 -1.266989592	 -0.731494346	 0.000000000
H	 -1.299099592	 -0.784164346	 1.334580000
H	 -0.037979592	 1.337795654	 0.317070000
H	 -0.939999592	 1.275245654	 -1.199520000
H	 -1.805019592	 1.613635654	 0.303680000
