9
0  1  0  1  0  1   3   6 -3.32725 -3.07641 -3.15940 -3.41023 -3.24655 -3.34020 -1.42639 -1.43089 -1.42858 -3.00604 -3.31287  3.29764 -1.03272 -1.95809
O	 2.835180000	 0.478090000	 1.759520000
H	 2.168760000	 0.000000000	 1.252130000
H	 3.486260000	 -0.192610000	 1.972670000
C	 0.100333870	 1.790090000	 -0.242030773
S	 -0.183426130	 0.000000000	 -0.105900773
H	 -0.215536130	 -0.052670000	 1.228679227
H	 1.045583870	 2.069290000	 0.211169227
H	 0.143563870	 2.006740000	 -1.305420773
H	 -0.721456130	 2.345130000	 0.197779227
