9
0  1  0  1  0  1   3   6 -3.38521 -3.17497 -3.23519 -3.44542 -3.29319 -3.38010 -1.76709 -1.76579 -1.76319 -3.24870 -3.45448  2.73806 -0.70656 -1.82573
O	 -0.004640000	 0.489720000	 -0.830830000
H	 0.000000000	 0.000000000	 0.000000000
H	 0.009710000	 -0.195480000	 -1.501260000
C	 -0.537310000	 2.846749787	 1.504774586
S	 0.000000000	 1.505149787	 2.607004586
H	 1.311930000	 1.738079787	 2.509604586
H	 -0.158970000	 2.698389787	 0.498954586
H	 -1.622150000	 2.799689787	 1.482024586
H	 -0.234370000	 3.811989787	 1.896414586
