9
0  1  0  1  0  1   3   6 -0.58235 -0.42191 -0.38788 -0.54832 -0.43288 -0.50047  1.02199  1.02290  1.02087 -0.36888 -1.25492  3.07538 -0.56264 -1.62671
O	 2.649240000	 2.081590000	 0.106200000
H	 2.168760000	 1.252130000	 0.000000000
H	 3.565190000	 1.835950000	 -0.034740000
C	 -0.639654633	 1.256958089	 -0.136130000
S	 -0.923414633	 -0.533131911	 0.000000000
H	 -0.955524633	 -0.585801911	 1.334580000
H	 0.305595367	 1.536158089	 0.317070000
H	 -0.596424633	 1.473608089	 -1.199520000
H	 -1.461444633	 1.811998089	 0.303680000
