9
0  1  0  1  0  1   3   6 -2.88212 -2.69716 -2.76725 -2.95221 -2.82798 -2.89924 -1.64194 -1.65388 -1.65255 -2.67512 -3.22084  2.78629 -0.86698 -1.37358
O	 3.127320000	 -1.253510000	 0.106200000
H	 2.168760000	 -1.252130000	 0.000000000
H	 3.372580000	 -2.169570000	 -0.034740000
C	 0.051601833	 1.924126134	 -0.136130000
S	 -0.232158167	 0.134036134	 0.000000000
H	 -0.264268167	 0.081366134	 1.334580000
H	 0.996851833	 2.203326134	 0.317070000
H	 0.094831833	 2.140776134	 -1.199520000
H	 -0.770188167	 2.479166134	 0.303680000
