9
0  1  0  1  0  1   3   6 -3.25254 -3.06178 -3.11720 -3.30796 -3.17336 -3.25047 -1.87970 -1.88104 -1.87937 -3.11665 -3.15577  2.29063 -0.69206 -1.55945
O	 -0.004640000	 0.489720000	 -0.830830000
H	 0.000000000	 0.000000000	 0.000000000
H	 0.009710000	 -0.195480000	 -1.501260000
C	 0.838555627	 1.712970000	 2.527040540
S	 1.445755627	 0.000000000	 2.504130540
H	 2.597975627	 0.250420000	 1.875970540
H	 0.693585627	 2.087400000	 1.519260540
H	 -0.122554373	 1.683590000	 3.032020540
H	 1.511805627	 2.353070000	 3.087260540
