9
0  1  0  1  0  1   3   6 -0.53780  0.05806 -0.29523 -0.89108 -0.39826 -0.68111  3.50304  3.48813  3.49302  0.39990 -10.82148 20.43492 -4.97966 -4.23388
O	 3.127320000	 -1.253510000	 0.106200000
H	 2.168760000	 -1.252130000	 0.000000000
H	 3.372580000	 -2.169570000	 -0.034740000
C	 0.623249015	 1.594086578	 -0.136130000
S	 0.339489015	 -0.196003422	 0.000000000
H	 0.307379015	 -0.248673422	 1.334580000
H	 1.568499015	 1.873286578	 0.317070000
H	 0.666479015	 1.810736578	 -1.199520000
H	 -0.198540985	 2.149126578	 0.303680000
