9
0  1  0  1  0  1   3   6 -3.53397 -3.29340 -3.36607 -3.60664 -3.43356 -3.53294 -1.80967 -1.81295 -1.81134 -3.31802 -3.87337  3.44935 -0.96065 -1.93336
O	 -0.004640000	 0.489720000	 -0.830830000
H	 0.000000000	 0.000000000	 0.000000000
H	 0.009710000	 -0.195480000	 -1.501260000
C	 0.772839462	 1.712970000	 2.413216425
S	 1.380039462	 0.000000000	 2.390306425
H	 2.532259462	 0.250420000	 1.762146425
H	 0.627869462	 2.087400000	 1.405436425
H	 -0.188270538	 1.683590000	 2.918196425
H	 1.446089462	 2.353070000	 2.973436425
