9
0  1  0  1  0  1   3   6 -0.29168  0.49178  0.08838 -0.69508 -0.03918 -0.42024  5.24068  5.23311  5.22868  0.64568 -13.90615 26.16176 -5.56569 -6.04423
O	 -0.004640000	 0.489720000	 -0.830830000
H	 0.000000000	 0.000000000	 0.000000000
H	 0.009710000	 -0.195480000	 -1.501260000
C	 -1.380237703	 1.712970000	 1.316016090
S	 -1.056787703	 0.000000000	 1.830416090
H	 0.063312297	 0.250420000	 2.514186090
H	 -0.579957703	 2.087400000	 0.686576090
H	 -2.298117703	 1.683590000	 0.736156090
H	 -1.528777703	 2.353070000	 2.179176090
