9
0  1  0  1  0  1   3   6 -3.75176 -3.45218 -3.54900 -3.84858 -3.62883 -3.75516 -1.49643 -1.49940 -1.49771 -3.41932 -4.81688  5.23015 -1.36196 -2.47062
O	 -0.004640000	 0.489720000	 -0.830830000
H	 0.000000000	 0.000000000	 0.000000000
H	 0.009710000	 -0.195480000	 -1.501260000
C	 -1.644434629	 1.712970000	 1.773620112
S	 -1.320984629	 0.000000000	 2.288020112
H	 -0.200884629	 0.250420000	 2.971790112
H	 -0.844154629	 2.087400000	 1.144180112
H	 -2.562314629	 1.683590000	 1.193760112
H	 -1.792974629	 2.353070000	 2.636780112
