9
0  1  0  1  0  1   3   6 -3.21185 -2.75228 -2.98189 -3.44147 -3.08304 -3.28706  0.14726  0.13411  0.14168 -2.41557 -6.68400 10.72542 -2.84229 -3.61470
O	 2.941380000	 0.478090000	 -1.575570000
H	 2.168760000	 0.000000000	 -1.252130000
H	 3.451520000	 -0.192610000	 -2.032850000
C	 0.459685474	 1.790090000	 -0.237700281
S	 0.175925474	 0.000000000	 -0.101570281
H	 0.143815474	 -0.052670000	 1.233009719
H	 1.404935474	 2.069290000	 0.215499719
H	 0.502915474	 2.006740000	 -1.301090281
H	 -0.362104526	 2.345130000	 0.202109719
