9
0  1  0  1  0  1   3   6 -3.71704 -3.41452 -3.51305 -3.81557 -3.59219 -3.72040 -1.55552 -1.56060 -1.55839 -3.39583 -4.83029  5.18078 -1.34474 -2.40158
O	 -0.004640000	 0.489720000	 -0.830830000
H	 0.000000000	 0.000000000	 0.000000000
H	 0.009710000	 -0.195480000	 -1.501260000
C	 0.707123297	 1.712970000	 2.299392309
S	 1.314323297	 0.000000000	 2.276482309
H	 2.466543297	 0.250420000	 1.648322309
H	 0.562153297	 2.087400000	 1.291612309
H	 -0.253986703	 1.683590000	 2.804372309
H	 1.380373297	 2.353070000	 2.859612309
