9
0  1  0  1  0  1   3   6 -3.67411 -3.30358 -3.47691 -3.84745 -3.57088 -3.72892 -1.01435 -1.02172 -1.01732 -3.15532 -5.94907  8.04685 -2.38807 -2.86503
O	 -0.004640000	 0.489720000	 -0.830830000
H	 0.000000000	 0.000000000	 0.000000000
H	 0.009710000	 -0.195480000	 -1.501260000
C	 -0.537310000	 0.427916169	 2.684763141
S	 0.000000000	 -1.197433831	 2.074023141
H	 1.311930000	 -0.996623831	 2.227043141
H	 -0.158970000	 1.224806169	 2.053373141
H	 -1.622150000	 0.424086169	 2.632643141
H	 -0.234370000	 0.571366169	 3.716503141
