9
0  1  0  1  0  1   3   6  9.67874 10.98842 10.19601  8.88634 10.01534  9.33797 18.27789 18.26638 18.20791 10.46807 -21.09602 53.28258 -12.29256 -9.42593
O	 2.835180000	 0.478090000	 1.759520000
H	 2.168760000	 0.000000000	 1.252130000
H	 3.486260000	 -0.192610000	 1.972670000
C	 0.884395913	 1.790090000	 0.210646151
S	 0.600635913	 0.000000000	 0.346776151
H	 0.568525913	 -0.052670000	 1.681356151
H	 1.829645913	 2.069290000	 0.663846151
H	 0.927625913	 2.006740000	 -0.852743849
H	 0.062605913	 2.345130000	 0.650456151
