9
0  1  0  1  0  1   3   6 -3.04922 -2.75830 -2.88555 -3.17646 -2.96331 -3.08484 -1.04959 -1.06420 -1.06018 -2.59815 -4.99189  6.22576 -1.69914 -2.13288
O	 3.127320000	 -1.253510000	 0.106200000
H	 2.168760000	 -1.252130000	 0.000000000
H	 3.372580000	 -2.169570000	 -0.034740000
C	 0.280260706	 1.792110312	 -0.136130000
S	 -0.003499294	 0.002020312	 0.000000000
H	 -0.035609294	 -0.050649688	 1.334580000
H	 1.225510706	 2.071310312	 0.317070000
H	 0.323490706	 2.008760312	 -1.199520000
H	 -0.541529294	 2.347150312	 0.303680000
