9
0  1  0  1  0  1   3   6 -3.58445 -3.21737 -3.38446 -3.75155 -3.47615 -3.63290 -0.89228 -0.90592 -0.90006 -2.98172 -5.24907  7.17999 -2.00741 -2.90524
O	 2.941380000	 0.478090000	 -1.575570000
H	 2.168760000	 0.000000000	 -1.252130000
H	 3.451520000	 -0.192610000	 -2.032850000
C	 0.348972444	 1.790090000	 -0.173780297
S	 0.065212444	 0.000000000	 -0.037650297
H	 0.033102444	 -0.052670000	 1.296929703
H	 1.294222444	 2.069290000	 0.279419703
H	 0.392202444	 2.006740000	 -1.237170297
H	 -0.472817556	 2.345130000	 0.266029703
