9
0  1  0  1  0  1   3   6 10.89320 11.62991 11.33679 10.60000 11.24573 10.86307 16.89019 16.88423 16.86201 11.78185 -12.22180 36.30010 -5.67591 -6.62054
O	 2.649240000	 2.081590000	 0.106200000
H	 2.168760000	 1.252130000	 0.000000000
H	 3.565190000	 1.835950000	 -0.034740000
C	 0.047495286	 1.653682958	 -0.136130000
S	 -0.236264714	 -0.136407042	 0.000000000
H	 -0.268374714	 -0.189077042	 1.334580000
H	 0.992745286	 1.932882958	 0.317070000
H	 0.090725286	 1.870332958	 -1.199520000
H	 -0.774294714	 2.208722958	 0.303680000
