9
0  1  0  1  0  1   3   6 -3.06594 -2.60140 -2.76438 -3.22892 -2.86289 -3.07508  0.38235  0.37676  0.37537 -2.53788 -7.58022 10.96061 -2.11085 -3.80742
O	 -0.004640000	 0.489720000	 -0.830830000
H	 0.000000000	 0.000000000	 0.000000000
H	 0.009710000	 -0.195480000	 -1.501260000
C	 -0.537310000	 2.631728389	 1.132345360
S	 0.000000000	 1.290128389	 2.234575360
H	 1.311930000	 1.523058389	 2.137175360
H	 -0.158970000	 2.483368389	 0.126525360
H	 -1.622150000	 2.584668389	 1.109595360
H	 -0.234370000	 3.596968389	 1.523985360
