9
0  1  0  1  0  1   3   6  8.68844  9.97061  9.20883  7.92666  9.05283  8.38019 16.76602 16.75173 16.70058  9.31649 -24.50805 54.70409 -11.62443 -9.25512
O	 -0.004640000	 0.489720000	 -0.830830000
H	 0.000000000	 0.000000000	 0.000000000
H	 0.009710000	 -0.195480000	 -1.501260000
C	 0.312826308	 1.712970000	 1.616447616
S	 0.920026308	 0.000000000	 1.593537616
H	 2.072246308	 0.250420000	 0.965377616
H	 0.167856308	 2.087400000	 0.608667616
H	 -0.648283692	 1.683590000	 2.121427616
H	 0.986076308	 2.353070000	 2.176667616
