9
0  1  0  1  0  1   3   6 -3.52089 -3.28096 -3.37330 -3.61323 -3.44748 -3.54271 -1.78207 -1.78876 -1.78735 -3.23962 -3.83154  3.72501 -1.24524 -1.88784
O	 -0.004640000	 0.489720000	 -0.830830000
H	 0.000000000	 0.000000000	 0.000000000
H	 0.009710000	 -0.195480000	 -1.501260000
C	 -0.537310000	 0.301870502	 2.903081367
S	 0.000000000	 -1.323479498	 2.292341367
H	 1.311930000	 -1.122669498	 2.445361367
H	 -0.158970000	 1.098760502	 2.271691367
H	 -1.622150000	 0.298040502	 2.850961367
H	 -0.234370000	 0.445320502	 3.934821367
