9
0  1  0  1  0  1   3   6 -4.29926 -3.88039 -4.08361 -4.50248 -4.17866 -4.36415 -1.23509 -1.24119 -1.23712 -3.69576 -6.95063  9.13564 -2.55866 -3.32211
O	 -0.004640000	 0.489720000	 -0.830830000
H	 0.000000000	 0.000000000	 0.000000000
H	 0.009710000	 -0.195480000	 -1.501260000
C	 -0.537310000	 1.712970000	 2.111569246
S	 0.000000000	 -0.000000000	 2.395329246
H	 1.311930000	 0.250420000	 2.427439246
H	 -0.158970000	 2.087400000	 1.166319246
H	 -1.622150000	 1.683590000	 2.068339246
H	 -0.234370000	 2.353070000	 2.933359246
