9
0  1  0  1  0  1   3   6  8.73469  9.95535  9.11970  7.89904  8.97555  8.33502 16.79300 16.78132 16.73824  9.89249 -20.09037 51.16976 -12.20619 -8.98071
O	 2.941380000	 0.478090000	 -1.575570000
H	 2.168760000	 0.000000000	 -1.252130000
H	 3.451520000	 -0.192610000	 -2.032850000
C	 0.902537591	 1.790090000	 -0.493380219
S	 0.618777591	 0.000000000	 -0.357250219
H	 0.586667591	 -0.052670000	 0.977329781
H	 1.847787591	 2.069290000	 -0.040180219
H	 0.945767591	 2.006740000	 -1.556770219
H	 0.080747591	 2.345130000	 -0.053570219
