9
0  1  0  1  0  1   3   6 -0.59598 -0.55983 -0.54400 -0.58016 -0.56037 -0.57065 -0.18032 -0.17619 -0.17345 -0.57284 -0.26661  0.20820 -0.07533 -0.43909
O	 2.649240000	 2.081590000	 0.106200000
H	 2.168760000	 1.252130000	 0.000000000
H	 3.565190000	 1.835950000	 -0.034740000
C	 -1.326804551	 0.860233219	 -0.136130000
S	 -1.610564551	 -0.929856781	 0.000000000
H	 -1.642674551	 -0.982526781	 1.334580000
H	 -0.381554551	 1.139433219	 0.317070000
H	 -1.283574551	 1.076883219	 -1.199520000
H	 -2.148594551	 1.415273219	 0.303680000
