9
0  1  0  1  0  1   3   6 -0.70058 -0.64936 -0.62721 -0.67843 -0.64920 -0.66477 -0.12178 -0.11746 -0.11431 -0.65571 -0.35041  0.41484 -0.11915 -0.60098
O	 2.649240000	 2.081590000	 0.106200000
H	 2.168760000	 1.252130000	 0.000000000
H	 3.565190000	 1.835950000	 -0.034740000
C	 -1.155017072	 0.959414437	 -0.136130000
S	 -1.438777072	 -0.830675563	 0.000000000
H	 -1.470887072	 -0.883345563	 1.334580000
H	 -0.209767072	 1.238614437	 0.317070000
H	 -1.111787072	 1.176064437	 -1.199520000
H	 -1.976807072	 1.514454437	 0.303680000
