9
0  1  0  1  0  1   3   6 -3.83076 -3.61565 -3.70386 -3.91897 -3.76852 -3.85463 -2.23654 -2.23971 -2.23766 -3.60929 -3.68419  2.80041 -0.96366 -1.76185
O	 -0.004640000	 0.489720000	 -0.830830000
H	 0.000000000	 0.000000000	 0.000000000
H	 0.009710000	 -0.195480000	 -1.501260000
C	 -0.537310000	 1.712970000	 2.489779127
S	 0.000000000	 -0.000000000	 2.773539127
H	 1.311930000	 0.250420000	 2.805649127
H	 -0.158970000	 2.087400000	 1.544529127
H	 -1.622150000	 1.683590000	 2.446549127
H	 -0.234370000	 2.353070000	 3.311569127
