9
0  1  0  1  0  1   3   6  1.61387  1.96802  1.94254  1.58839  1.87772  1.70219  4.75958  4.75749  4.73792  2.13543 -3.81262 10.96729 -1.75509 -3.26414
O	 2.649240000	 2.081590000	 0.106200000
H	 2.168760000	 1.252130000	 0.000000000
H	 3.565190000	 1.835950000	 -0.034740000
C	 -0.296079674	 1.455320523	 -0.136130000
S	 -0.579839674	 -0.334769477	 0.000000000
H	 -0.611949674	 -0.387439477	 1.334580000
H	 0.649170326	 1.734520523	 0.317070000
H	 -0.252849674	 1.671970523	 -1.199520000
H	 -1.117869674	 2.010360523	 0.303680000
