9
0  1  0  1  0  1   3   6 -3.27483 -3.08799 -3.14071 -3.32756 -3.19756 -3.27206 -1.84780 -1.84717 -1.84561 -3.12843 -3.11803  2.28851 -0.70367 -1.59524
O	 -0.004640000	 0.489720000	 -0.830830000
H	 0.000000000	 0.000000000	 0.000000000
H	 0.009710000	 -0.195480000	 -1.501260000
C	 -1.776533092	 1.712970000	 2.002422124
S	 -1.453083092	 0.000000000	 2.516822124
H	 -0.332983092	 0.250420000	 3.200592124
H	 -0.976253092	 2.087400000	 1.372982124
H	 -2.694413092	 1.683590000	 1.422562124
H	 -1.925073092	 2.353070000	 2.865582124
