9
0  1  0  1  0  1   3   6 13.73620 15.12822 14.37064 12.97860 14.21167 13.47890 22.92473 22.91187 22.86467 14.92477 -28.18877 63.08126 -9.63953 -10.32820
O	 -0.004640000	 0.489720000	 -0.830830000
H	 0.000000000	 0.000000000	 0.000000000
H	 0.009710000	 -0.195480000	 -1.501260000
C	 -0.537310000	 2.345033192	 0.635773058
S	 0.000000000	 1.003433192	 1.738003058
H	 1.311930000	 1.236363192	 1.640603058
H	 -0.158970000	 2.196673192	 -0.370046942
H	 -1.622150000	 2.297973192	 0.613023058
H	 -0.234370000	 3.310273192	 1.027413058
