9
0  1  0  1  0  1   3   6 -3.73285 -3.35444 -3.49109 -3.86950 -3.58270 -3.74737 -0.90460 -0.90911 -0.90642 -3.26415 -6.13687  7.87077 -1.91783 -3.08023
O	 -0.004640000	 0.489720000	 -0.830830000
H	 0.000000000	 0.000000000	 0.000000000
H	 0.009710000	 -0.195480000	 -1.501260000
C	 -1.578385397	 1.712970000	 1.659219107
S	 -1.254935397	 0.000000000	 2.173619107
H	 -0.134835397	 0.250420000	 2.857389107
H	 -0.778105397	 2.087400000	 1.029779107
H	 -2.496265397	 1.683590000	 1.079359107
H	 -1.726925397	 2.353070000	 2.522379107
