9
0  1  0  1  0  1   3   6  9.80997 11.18336 10.22997  8.85658 10.07985  9.34567 18.59267 18.58553 18.52158 10.46213 -25.47710 60.54752 -14.57166 -10.03663
O	 -0.004640000	 0.489720000	 -0.830830000
H	 0.000000000	 0.000000000	 0.000000000
H	 0.009710000	 -0.195480000	 -1.501260000
C	 -0.537310000	 1.712970000	 1.481219445
S	 0.000000000	 -0.000000000	 1.764979445
H	 1.311930000	 0.250420000	 1.797089445
H	 -0.158970000	 2.087400000	 0.535969445
H	 -1.622150000	 1.683590000	 1.437989445
H	 -0.234370000	 2.353070000	 2.303009445
