9
0  1  0  1  0  1   3   6 -0.53136  0.31321 -0.20578 -1.05035 -0.33107 -0.75090  5.26398  5.25800  5.24852  0.48393 -14.80300 28.84600 -7.17482 -6.38425
O	 -0.004640000	 0.489720000	 -0.830830000
H	 0.000000000	 0.000000000	 0.000000000
H	 0.009710000	 -0.195480000	 -1.501260000
C	 -0.537310000	 1.712970000	 1.733359365
S	 0.000000000	 -0.000000000	 2.017119365
H	 1.311930000	 0.250420000	 2.049229365
H	 -0.158970000	 2.087400000	 0.788109365
H	 -1.622150000	 1.683590000	 1.690129365
H	 -0.234370000	 2.353070000	 2.555149365
