9
0  1  0  1  0  1   3   6 -3.70381 -3.32347 -3.46035 -3.84069 -3.55130 -3.71713 -0.99930 -1.00607 -1.00258 -3.25226 -6.12344  7.75788 -1.89717 -2.98953
O	 -0.004640000	 0.489720000	 -0.830830000
H	 0.000000000	 0.000000000	 0.000000000
H	 0.009710000	 -0.195480000	 -1.501260000
C	 0.641407132	 1.712970000	 2.185568194
S	 1.248607132	 0.000000000	 2.162658194
H	 2.400827132	 0.250420000	 1.534498194
H	 0.496437132	 2.087400000	 1.177788194
H	 -0.319702868	 1.683590000	 2.690548194
H	 1.314657132	 2.353070000	 2.745788194
