9
0  1  0  1  0  1   3   6 -3.55264 -3.19528 -3.30804 -3.66540 -3.39256 -3.55030 -0.86735 -0.87057 -0.87058 -3.19997 -5.70785  6.93887 -1.45469 -2.97630
O	 -0.004640000	 0.489720000	 -0.830830000
H	 0.000000000	 0.000000000	 0.000000000
H	 0.009710000	 -0.195480000	 -1.501260000
C	 -0.537310000	 2.703402189	 1.256488435
S	 0.000000000	 1.361802189	 2.358718435
H	 1.311930000	 1.594732189	 2.261318435
H	 -0.158970000	 2.555042189	 0.250668435
H	 -1.622150000	 2.656342189	 1.233738435
H	 -0.234370000	 3.668642189	 1.648128435
