9
0  1  0  1  0  1   3   6  9.45168 10.76456  9.95666  8.64379  9.80127  9.10968 18.05409 18.04408 17.99094 10.25574 -25.22969 56.73025 -11.63201 -9.61281
O	 -0.004640000	 0.489720000	 -0.830830000
H	 0.000000000	 0.000000000	 0.000000000
H	 0.009710000	 -0.195480000	 -1.501260000
C	 -1.248139240	 1.712970000	 1.087214079
S	 -0.924689240	 0.000000000	 1.601614079
H	 0.195410760	 0.250420000	 2.285384079
H	 -0.447859240	 2.087400000	 0.457774079
H	 -2.166019240	 1.683590000	 0.507354079
H	 -1.396679240	 2.353070000	 1.950374079
