9
0  1  0  1  0  1   3   6 -4.14420 -3.87555 -3.98957 -4.25822 -4.06468 -4.17560 -2.15810 -2.16280 -2.16050 -3.81979 -4.48788  4.16552 -1.32476 -2.17266
O	 -0.004640000	 0.489720000	 -0.830830000
H	 0.000000000	 0.000000000	 0.000000000
H	 0.009710000	 -0.195480000	 -1.501260000
C	 -0.537310000	 1.712970000	 2.363709167
S	 0.000000000	 -0.000000000	 2.647469167
H	 1.311930000	 0.250420000	 2.679579167
H	 -0.158970000	 2.087400000	 1.418459167
H	 -1.622150000	 1.683590000	 2.320479167
H	 -0.234370000	 2.353070000	 3.185499167
