9
0  1  0  1  0  1   3   6 -3.07362 -2.91369 -2.96117 -3.12111 -3.00733 -3.07143 -1.82123 -1.81813 -1.81417 -2.99687 -2.77318  1.71056 -0.49936 -1.43489
O	 -0.004640000	 0.489720000	 -0.830830000
H	 0.000000000	 0.000000000	 0.000000000
H	 0.009710000	 -0.195480000	 -1.501260000
C	 -0.537310000	 2.918423587	 1.628917662
S	 0.000000000	 1.576823587	 2.731147662
H	 1.311930000	 1.809753587	 2.633747662
H	 -0.158970000	 2.770063587	 0.623097662
H	 -1.622150000	 2.871363587	 1.606167662
H	 -0.234370000	 3.883663587	 2.020557662
