9
0  1  0  1  0  1   3   6  3.60245  4.27486  3.60568  2.93327  3.52431  3.19492  8.34804  8.33151  8.36069  4.04411 -17.87603 36.27503 -8.41996 -5.93493
O	 0.824550000	 0.240941000	 -0.328033000
H	 1.418677000	 -0.049953000	 -1.023097000
H	 1.381841000	 0.267392000	 0.452637000
C	 -2.600875152	 -0.425253299	 -0.270295383
S	 -1.367574152	 -1.720681299	 0.039115617
H	 -0.294937152	 -0.934099299	 -0.103272383
H	 -2.491568152	 -0.009529299	 -1.266888383
H	 -2.534966152	 0.364346701	 0.471431617
H	 -3.575593152	 -0.898726299	 -0.192793383
