9
0  1  0  1  0  1   3   6 -0.18115  0.22111 -0.07700 -0.47927 -0.13329 -0.33526  2.73770  2.73506  2.73042  0.21108 -7.76595 14.27947 -2.94902 -3.35341
O	 0.293213711	 -1.337792173	 -0.001810393
H	 0.741096711	 -1.892830173	 -0.643724393
H	 0.704263711	 -1.575488173	 0.832010607
C	 -3.110208000	 1.144977000	 -0.620728000
S	 -2.707703000	 -0.583358000	 -0.238959000
H	 -1.379422000	 -0.424593000	 -0.239937000
H	 -2.704740000	 1.438707000	 -1.583687000
H	 -2.748134000	 1.812574000	 0.154635000
H	 -4.193859000	 1.210314000	 -0.661830000
