9
0  1  0  1  0  1   3   6 -2.27908 -2.10849 -2.19639 -2.36697 -2.23650 -2.30902 -0.91755 -0.91404 -0.90716 -2.27185 -3.38588  3.65391 -0.91558 -1.62430
O	 0.824550000	 0.240941000	 -0.328033000
H	 1.418677000	 -0.049953000	 -1.023097000
H	 1.381841000	 0.267392000	 0.452637000
C	 -3.080655360	 -0.928841998	 -0.173969404
S	 -1.847354360	 -2.224269998	 0.135441596
H	 -0.774717360	 -1.437687998	 -0.006946404
H	 -2.971348360	 -0.513117998	 -1.170562404
H	 -3.014746360	 -0.139241998	 0.567757596
H	 -4.055373360	 -1.402314998	 -0.096467404
