9
0  1  0  1  0  1   3   6 -2.06044 -1.95415 -2.00595 -2.11225 -2.03736 -2.07632 -1.17279 -1.16821 -1.15793 -2.10200 -2.21105  1.67041 -0.47662 -1.08474
O	 0.824550000	 0.240941000	 -0.328033000
H	 1.418677000	 -0.049953000	 -1.023097000
H	 1.381841000	 0.267392000	 0.452637000
C	 -3.240582095	 -1.096704898	 -0.141860745
S	 -2.007281095	 -2.392132898	 0.167550255
H	 -0.934644095	 -1.605550898	 0.025162255
H	 -3.131275095	 -0.680980898	 -1.138453745
H	 -3.174673095	 -0.307104898	 0.599866255
H	 -4.215300095	 -1.570177898	 -0.064358745
