9
0  1  0  1  0  1   3   6 -1.85138 -1.73447 -1.80209 -1.91901 -1.83267 -1.87987 -0.89332 -0.89041 -0.88397 -1.85511 -2.02659  1.80342 -0.51280 -1.11914
O	 0.815912370	 -1.623166914	 0.072604171
H	 1.263795370	 -2.178204914	 -0.569309829
H	 1.226962370	 -1.860862914	 0.906425171
C	 -3.110208000	 1.144977000	 -0.620728000
S	 -2.707703000	 -0.583358000	 -0.238959000
H	 -1.379422000	 -0.424593000	 -0.239937000
H	 -2.704740000	 1.438707000	 -1.583687000
H	 -2.748134000	 1.812574000	 0.154635000
H	 -4.193859000	 1.210314000	 -0.661830000
