9
0  1  0  1  0  1   3   6 -1.17172 -0.98842 -1.04053 -1.22383 -1.08248 -1.16190  0.35570  0.35844  0.36389 -1.10985 -2.47951  3.93102 -0.80545 -1.75592
O	 0.275965394	 -0.290092821	 -1.946054810
H	 0.447280394	 -0.742228821	 -2.774875810
H	 1.137577394	 -0.249317821	 -1.525722810
C	 -3.110208000	 1.144977000	 -0.620728000
S	 -2.707703000	 -0.583358000	 -0.238959000
H	 -1.379422000	 -0.424593000	 -0.239937000
H	 -2.704740000	 1.438707000	 -1.583687000
H	 -2.748134000	 1.812574000	 0.154635000
H	 -4.193859000	 1.210314000	 -0.661830000
