9
0  1  0  1  0  1   3   6 -2.20777 -2.06783 -2.17105 -2.31100 -2.20806 -2.26415 -1.12339 -1.12166 -1.11354 -2.22268 -2.53528  2.35061 -0.69903 -1.33898
O	 0.824550000	 0.240941000	 -0.328033000
H	 1.418677000	 -0.049953000	 -1.023097000
H	 1.381841000	 0.267392000	 0.452637000
C	 -2.212055469	 2.972872088	 -0.991427155
S	 -2.748196469	 1.274736088	 -0.639594155
H	 -1.520184469	 0.763142088	 -0.498901155
H	 -1.613254469	 3.015815088	 -1.895620155
H	 -1.656650469	 3.389672088	 -0.157296155
H	 -3.114275469	 3.559512088	 -1.140116155
