9
0  1  0  1  0  1   3   6  3.93643  4.58024  3.91079  3.26698  3.82602  3.51192  8.55688  8.54683  8.56838  4.52555 -14.84654 32.46709 -7.37631 -5.71869
O	 0.824550000	 0.240941000	 -0.328033000
H	 1.418677000	 -0.049953000	 -1.023097000
H	 1.381841000	 0.267392000	 0.452637000
C	 -2.073712226	 1.150943094	 -2.039962810
S	 -1.653126226	 -0.585944906	 -1.721803810
H	 -0.509639226	 -0.339760906	 -1.072674810
H	 -1.317317226	 1.631996094	 -2.651865810
H	 -2.205607226	 1.698887094	 -1.112421810
H	 -3.014733226	 1.148804094	 -2.582855810
