9
0  1  0  1  0  1   3   6 -1.17164 -0.98837 -1.04047 -1.22375 -1.08242 -1.16183  0.35575  0.35850  0.36394 -1.10979 -2.47948  3.93105 -0.80545 -1.75591
O	 0.194002129	 0.415911342	 1.337119611
H	 1.075052129	 0.289231342	 0.978758611
H	 0.320953129	 0.345979342	 2.285650611
C	 -3.110208000	 1.144977000	 -0.620728000
S	 -2.707703000	 -0.583358000	 -0.238959000
H	 -1.379422000	 -0.424593000	 -0.239937000
H	 -2.704740000	 1.438707000	 -1.583687000
H	 -2.748134000	 1.812574000	 0.154635000
H	 -4.193859000	 1.210314000	 -0.661830000
