9
0  1  0  1  0  1   3   6  3.98125  4.66416  3.90910  3.22619  3.83045  3.49266  8.68755  8.67295  8.70032  4.43787 -17.51772 36.79711 -8.81587 -6.02565
O	 0.824550000	 0.240941000	 -0.328033000
H	 1.418677000	 -0.049953000	 -1.023097000
H	 1.381841000	 0.267392000	 0.452637000
C	 -2.444846265	 1.345896457	 -0.647323486
S	 -2.042341265	 -0.382438543	 -0.265554486
H	 -0.714060265	 -0.223673543	 -0.266532486
H	 -2.039378265	 1.639626457	 -1.610282486
H	 -2.082772265	 2.013493457	 0.128039514
H	 -3.528497265	 1.411233457	 -0.688425486
