9
0  1  0  1  0  1   3   6 -2.27540 -2.10031 -2.23122 -2.40631 -2.27192 -2.34709 -0.93386 -0.93165 -0.92565 -2.25371 -3.14996  3.49965 -0.96311 -1.64029
O	 0.824550000	 0.240941000	 -0.328033000
H	 1.418677000	 -0.049953000	 -1.023097000
H	 1.381841000	 0.267392000	 0.452637000
C	 -2.100401447	 2.948005370	 -0.983290577
S	 -2.636542447	 1.249869370	 -0.631457577
H	 -1.408530447	 0.738275370	 -0.490764577
H	 -1.501600447	 2.990948370	 -1.887483577
H	 -1.544996447	 3.364805370	 -0.149159577
H	 -3.002621447	 3.534645370	 -1.131979577
