9
0  1  0  1  0  1   3   6 -1.19728 -1.11189 -1.12999 -1.21538 -1.15739 -1.18773 -0.42958 -0.42888 -0.42133 -1.20261 -1.05236  1.05326 -0.30387 -0.89963
O	 0.551863293	 -0.267676124	 -2.230407778
H	 0.723178293	 -0.719812124	 -3.059228778
H	 1.413475293	 -0.226901124	 -1.810075778
C	 -3.110208000	 1.144977000	 -0.620728000
S	 -2.707703000	 -0.583358000	 -0.238959000
H	 -1.379422000	 -0.424593000	 -0.239937000
H	 -2.704740000	 1.438707000	 -1.583687000
H	 -2.748134000	 1.812574000	 0.154635000
H	 -4.193859000	 1.210314000	 -0.661830000
