9
0  1  0  1  0  1   3   6 -1.97160 -1.84191 -1.92060 -2.05030 -1.95895 -2.00850 -0.92765 -0.92642 -0.91868 -1.96449 -2.18452  2.02710 -0.54964 -1.25744
O	 0.824550000	 0.240941000	 -0.328033000
H	 1.418677000	 -0.049953000	 -1.023097000
H	 1.381841000	 0.267392000	 0.452637000
C	 -2.740806839	 0.860592141	 -2.412283716
S	 -2.320220839	 -0.876295859	 -2.094124716
H	 -1.176733839	 -0.630111859	 -1.444995716
H	 -1.984411839	 1.341645141	 -3.024186716
H	 -2.872701839	 1.408536141	 -1.484742716
H	 -3.681827839	 0.858453141	 -2.955176716
