9
0  1  0  1  0  1   3   6 -1.83680 -1.73009 -1.73377 -1.84048 -1.77121 -1.80544 -0.77392 -0.77140 -0.75761 -1.84470 -1.57514  1.32485 -0.31764 -1.27677
O	 0.095294201	 2.125597336	 -0.751509551
H	 0.681404201	 2.134277336	 -1.511192551
H	 0.644564201	 2.451622336	 -0.035458551
C	 -3.110208000	 1.144977000	 -0.620728000
S	 -2.707703000	 -0.583358000	 -0.238959000
H	 -1.379422000	 -0.424593000	 -0.239937000
H	 -2.704740000	 1.438707000	 -1.583687000
H	 -2.748134000	 1.812574000	 0.154635000
H	 -4.193859000	 1.210314000	 -0.661830000
