9
0  1  0  1  0  1   3   6 -0.96985 -0.62656 -0.70482 -1.04810 -0.78362 -0.93206  2.01338  2.01448  2.02507 -0.77994 -5.35455  9.45151 -1.37543 -3.50147
O	 -0.255828704	 1.518409161	 -0.629706563
H	 0.330281296	 1.527089161	 -1.389389563
H	 0.293441296	 1.844434161	 0.086344437
C	 -3.110208000	 1.144977000	 -0.620728000
S	 -2.707703000	 -0.583358000	 -0.238959000
H	 -1.379422000	 -0.424593000	 -0.239937000
H	 -2.704740000	 1.438707000	 -1.583687000
H	 -2.748134000	 1.812574000	 0.154635000
H	 -4.193859000	 1.210314000	 -0.661830000
