9
0  1  0  1  0  1   3   6 -0.17988  0.12971  0.00241 -0.30717 -0.05210 -0.19987  2.25483  2.25728  2.25656  0.02549 -4.88534  9.38744 -1.68723 -2.78938
O	 0.092033461	 -0.305037285	 -1.756486164
H	 0.263348461	 -0.757173285	 -2.585307164
H	 0.953645461	 -0.264262285	 -1.336154164
C	 -3.110208000	 1.144977000	 -0.620728000
S	 -2.707703000	 -0.583358000	 -0.238959000
H	 -1.379422000	 -0.424593000	 -0.239937000
H	 -2.704740000	 1.438707000	 -1.583687000
H	 -2.748134000	 1.812574000	 0.154635000
H	 -4.193859000	 1.210314000	 -0.661830000
