9
0  1  0  1  0  1   3   6 -2.04010 -1.87690 -1.97831 -2.14151 -2.02150 -2.08839 -0.74400 -0.74263 -0.73673 -1.99764 -2.72263  3.03634 -0.76746 -1.54390
O	 0.824550000	 0.240941000	 -0.328033000
H	 1.418677000	 -0.049953000	 -1.023097000
H	 1.381841000	 0.267392000	 0.452637000
C	 -2.731489357	 1.642569661	 1.083925452
S	 -2.314047357	 -0.067240339	 1.527984452
H	 -1.138430357	 -0.097796339	 0.890388452
H	 -2.813371357	 1.759626661	 0.008023452
H	 -2.000241357	 2.340291661	 1.479441452
H	 -3.697301357	 1.854036661	 1.534199452
