9
0  1  0  1  0  1   3   6 -2.00623 -1.79998 -1.93447 -2.14072 -1.98277 -2.07278 -0.39730 -0.39589 -0.39279 -1.90913 -3.46139  4.54088 -1.08642 -1.90220
O	 0.824550000	 0.240941000	 -0.328033000
H	 1.418677000	 -0.049953000	 -1.023097000
H	 1.381841000	 0.267392000	 0.452637000
C	 -2.633340339	 1.659506528	 1.023004379
S	 -2.215898339	 -0.050303472	 1.467063379
H	 -1.040281339	 -0.080859472	 0.829467379
H	 -2.715222339	 1.776563528	 -0.052897621
H	 -1.902092339	 2.357228528	 1.418520379
H	 -3.599152339	 1.870973528	 1.473278379
