9
0  1  0  1  0  1   3   6 -2.22898 -2.00896 -2.17919 -2.39921 -2.22373 -2.32393 -0.56959 -0.56724 -0.56427 -2.15108 -3.98965  5.19981 -1.34583 -2.01541
O	 0.824550000	 0.240941000	 -0.328033000
H	 1.418677000	 -0.049953000	 -1.023097000
H	 1.381841000	 0.267392000	 0.452637000
C	 -1.988747425	 2.923138651	 -0.975153998
S	 -2.524888425	 1.225002651	 -0.623320998
H	 -1.296876425	 0.713408651	 -0.482627998
H	 -1.389946425	 2.966081651	 -1.879346998
H	 -1.433342425	 3.339938651	 -0.141022998
H	 -2.890967425	 3.509778651	 -1.123842998
