9
0  1  0  1  0  1   3   6 -1.84809 -1.74443 -1.80751 -1.91118 -1.84128 -1.87800 -1.00708 -1.00606 -0.99731 -1.86197 -1.78763  1.35174 -0.39914 -1.02694
O	 0.824550000	 0.240941000	 -0.328033000
H	 1.418677000	 -0.049953000	 -1.023097000
H	 1.381841000	 0.267392000	 0.452637000
C	 -2.836106070	 0.819113434	 -2.465472416
S	 -2.415520070	 -0.917774566	 -2.147313416
H	 -1.272033070	 -0.671590566	 -1.498184416
H	 -2.079711070	 1.300166434	 -3.077375416
H	 -2.968001070	 1.367057434	 -1.537931416
H	 -3.777127070	 0.816974434	 -3.008365416
