9
0  1  0  1  0  1   3   6 -1.19726 -1.11185 -1.12995 -1.21535 -1.15735 -1.18770 -0.42954 -0.42884 -0.42129 -1.20256 -1.05233  1.05327 -0.30387 -0.89962
O	 0.456239484	 0.555995399	 1.599962379
H	 1.337289484	 0.429315399	 1.241601379
H	 0.583190484	 0.486063399	 2.548493379
C	 -3.110208000	 1.144977000	 -0.620728000
S	 -2.707703000	 -0.583358000	 -0.238959000
H	 -1.379422000	 -0.424593000	 -0.239937000
H	 -2.704740000	 1.438707000	 -1.583687000
H	 -2.748134000	 1.812574000	 0.154635000
H	 -4.193859000	 1.210314000	 -0.661830000
