9
0  1  0  1  0  1   3   6 -1.79726 -1.53615 -1.71855 -1.97966 -1.77228 -1.89226  0.19886  0.19996  0.19977 -1.62133 -4.48678  6.77599 -1.55840 -2.35214
O	 0.824550000	 0.240941000	 -0.328033000
H	 1.418677000	 -0.049953000	 -1.023097000
H	 1.381841000	 0.267392000	 0.452637000
C	 -2.454909148	 0.985028264	 -2.252717613
S	 -2.034323148	 -0.751859736	 -1.934558613
H	 -0.890836148	 -0.505675736	 -1.285429613
H	 -1.698514148	 1.466081264	 -2.864620613
H	 -2.586804148	 1.532972264	 -1.325176613
H	 -3.395930148	 0.982889264	 -2.795610613
