9
0  1  0  1  0  1   3   6  4.39907  5.04401  4.45228  3.80734  4.37742  4.05216  8.92241  8.91087  8.92112  5.01995 -14.88559 31.81015 -6.53428 -5.37033
O	 0.084134247	 -1.223642276	 -0.031576219
H	 0.532017247	 -1.778680276	 -0.673490219
H	 0.495184247	 -1.461338276	 0.802244781
C	 -3.110208000	 1.144977000	 -0.620728000
S	 -2.707703000	 -0.583358000	 -0.238959000
H	 -1.379422000	 -0.424593000	 -0.239937000
H	 -2.704740000	 1.438707000	 -1.583687000
H	 -2.748134000	 1.812574000	 0.154635000
H	 -4.193859000	 1.210314000	 -0.661830000
