9
0  1  0  1  0  1   3   6 -2.31430 -2.09030 -2.25324 -2.47724 -2.29720 -2.40019 -0.63800 -0.63513 -0.63253 -2.23605 -4.26152  5.43969 -1.38187 -2.03236
O	 0.824550000	 0.240941000	 -0.328033000
H	 1.418677000	 -0.049953000	 -1.023097000
H	 1.381841000	 0.267392000	 0.452637000
C	 -2.994349930	 1.179962691	 -0.625359017
S	 -2.591844930	 -0.548372309	 -0.243590017
H	 -1.263563930	 -0.389607309	 -0.244568017
H	 -2.588881930	 1.473692691	 -1.588318017
H	 -2.632275930	 1.847559691	 0.150003983
H	 -4.078000930	 1.245299691	 -0.666461017
