9
0  1  0  1  0  1   3   6  3.19897  3.71824  3.40811  2.88884  3.33815  3.07714  7.08760  7.08725  7.08428  3.62680 -10.19336 22.14917 -3.81306 -4.51595
O	 -0.155647678	 0.229132600	 0.986662586
H	 0.725402322	 0.102452600	 0.628301586
H	 -0.028696678	 0.159200600	 1.935193586
C	 -3.110208000	 1.144977000	 -0.620728000
S	 -2.707703000	 -0.583358000	 -0.238959000
H	 -1.379422000	 -0.424593000	 -0.239937000
H	 -2.704740000	 1.438707000	 -1.583687000
H	 -2.748134000	 1.812574000	 0.154635000
H	 -4.193859000	 1.210314000	 -0.661830000
