9
0  1  0  1  0  1   3   6 -0.17984  0.12978  0.00248 -0.30714 -0.05202 -0.19982  2.25489  2.25735  2.25662  0.02556 -4.88531  9.38748 -1.68724 -2.78936
O	 0.019177226	 0.322521971	 1.161891098
H	 0.900227226	 0.195841971	 0.803530098
H	 0.146128226	 0.252589971	 2.110422098
C	 -3.110208000	 1.144977000	 -0.620728000
S	 -2.707703000	 -0.583358000	 -0.238959000
H	 -1.379422000	 -0.424593000	 -0.239937000
H	 -2.704740000	 1.438707000	 -1.583687000
H	 -2.748134000	 1.812574000	 0.154635000
H	 -4.193859000	 1.210314000	 -0.661830000
