9
0  1  0  1  0  1   3   6 -2.35672 -2.17892 -2.30288 -2.48067 -2.34313 -2.42008 -1.00294 -0.99996 -0.99388 -2.33525 -3.36987  3.67712 -0.98732 -1.65518
O	 0.824550000	 0.240941000	 -0.328033000
H	 1.418677000	 -0.049953000	 -1.023097000
H	 1.381841000	 0.267392000	 0.452637000
C	 -3.104250664	 1.146775938	 -0.620966123
S	 -2.701745664	 -0.581559062	 -0.239197123
H	 -1.373464664	 -0.422794062	 -0.240175123
H	 -2.698782664	 1.440505938	 -1.583925123
H	 -2.742176664	 1.814372938	 0.154396877
H	 -4.187901664	 1.212112938	 -0.662068123
