9
0  1  0  1  0  1   3   6 -1.92831 -1.79564 -1.80183 -1.93450 -1.84497 -1.89048 -0.61907 -0.61551 -0.60071 -1.92411 -1.91977  1.96880 -0.41270 -1.56044
O	 0.025069620	 2.004159701	 -0.727148954
H	 0.611179620	 2.012839701	 -1.486831954
H	 0.574339620	 2.330184701	 -0.011097954
C	 -3.110208000	 1.144977000	 -0.620728000
S	 -2.707703000	 -0.583358000	 -0.238959000
H	 -1.379422000	 -0.424593000	 -0.239937000
H	 -2.704740000	 1.438707000	 -1.583687000
H	 -2.748134000	 1.812574000	 0.154635000
H	 -4.193859000	 1.210314000	 -0.661830000
