9
0  1  0  1  0  1   3   6 -1.86155 -1.65087 -1.67433 -1.88502 -1.73282 -1.81435  0.11813  0.12208  0.13739 -1.80244 -3.06050  4.31947 -0.72725 -2.33416
O	 -0.115379542	 1.761284431	 -0.678427758
H	 0.470730458	 1.769964431	 -1.438110758
H	 0.433890458	 2.087309431	 0.037623242
C	 -3.110208000	 1.144977000	 -0.620728000
S	 -2.707703000	 -0.583358000	 -0.238959000
H	 -1.379422000	 -0.424593000	 -0.239937000
H	 -2.704740000	 1.438707000	 -1.583687000
H	 -2.748134000	 1.812574000	 0.154635000
H	 -4.193859000	 1.210314000	 -0.661830000
