9
0  1  0  1  0  1   3   6 -2.07719 -1.96472 -2.04839 -2.16085 -2.08181 -2.12355 -1.20048 -1.19944 -1.19005 -2.11401 -2.07942  1.57638 -0.51469 -1.09628
O	 0.824550000	 0.240941000	 -0.328033000
H	 1.418677000	 -0.049953000	 -1.023097000
H	 1.381841000	 0.267392000	 0.452637000
C	 -2.323709492	 2.997738807	 -0.999563734
S	 -2.859850492	 1.299602807	 -0.647730734
H	 -1.631838492	 0.788008807	 -0.507037734
H	 -1.724908492	 3.040681807	 -1.903756734
H	 -1.768304492	 3.414538807	 -0.165432734
H	 -3.225929492	 3.584378807	 -1.148252734
