9
0  1  0  1  0  1   3   6 -2.15098 -2.03747 -2.11514 -2.22865 -2.14800 -2.19043 -1.26869 -1.26644 -1.25648 -2.18919 -2.22834  1.67181 -0.52454 -1.10812
O	 0.824550000	 0.240941000	 -0.328033000
H	 1.418677000	 -0.049953000	 -1.023097000
H	 1.381841000	 0.267392000	 0.452637000
C	 -3.324052130	 1.080402432	 -0.612180336
S	 -2.921547130	 -0.647932568	 -0.230411336
H	 -1.593266130	 -0.489167568	 -0.231389336
H	 -2.918584130	 1.374132432	 -1.575139336
H	 -2.961978130	 1.747999432	 0.163182664
H	 -4.407703130	 1.145739432	 -0.653282336
