9
0  1  0  1  0  1   3   6 -0.62915 -0.19242 -0.53100 -0.96774 -0.59213 -0.80910  2.54027  2.53561  2.53603 -0.29859 -9.73789 17.09620 -3.86641 -3.79049
O	 0.824550000	 0.240941000	 -0.328033000
H	 1.418677000	 -0.049953000	 -1.023097000
H	 1.381841000	 0.267392000	 0.452637000
C	 -2.760801888	 -0.593116198	 -0.238186724
S	 -1.527500888	 -1.888544198	 0.071224276
H	 -0.454863888	 -1.101962198	 -0.071163724
H	 -2.651494888	 -0.177392198	 -1.234779724
H	 -2.694892888	 0.196483802	 0.503540276
H	 -3.735519888	 -1.066589198	 -0.160684724
