9
0  1  0  1  0  1   3   6  4.12832  4.80147  4.04097  3.36783  3.96364  3.63034  8.78115  8.77016  8.79659  4.59666 -16.65187 35.83265 -8.60293 -5.98120
O	 0.824550000	 0.240941000	 -0.328033000
H	 1.418677000	 -0.049953000	 -1.023097000
H	 1.381841000	 0.267392000	 0.452637000
C	 -1.430477313	 2.798805059	 -0.934471104
S	 -1.966618313	 1.100669059	 -0.582638104
H	 -0.738606313	 0.589075059	 -0.441945104
H	 -0.831676313	 2.841748059	 -1.838664104
H	 -0.875072313	 3.215605059	 -0.100340104
H	 -2.332697313	 3.385445059	 -1.083160104
