9
0  1  0  1  0  1   3   6 -1.97162 -1.84192 -1.92062 -2.05031 -1.95896 -2.00851 -0.92767 -0.92645 -0.91870 -1.96451 -2.18453  2.02709 -0.54964 -1.25743
O	 0.824550000	 0.240941000	 -0.328033000
H	 1.418677000	 -0.049953000	 -1.023097000
H	 1.381841000	 0.267392000	 0.452637000
C	 -2.829638375	 1.625632794	 1.144846524
S	 -2.412196375	 -0.084177206	 1.588905524
H	 -1.236579375	 -0.114733206	 0.951309524
H	 -2.911520375	 1.742689794	 0.068944524
H	 -2.098390375	 2.323354794	 1.540362524
H	 -3.795450375	 1.837099794	 1.595120524
