9
0  1  0  1  0  1   3   6  2.02435  2.59023  2.36902  1.80314  2.26768  1.99870  6.51808  6.51277  6.51179  2.45383 -10.17653 20.80359 -2.85963 -5.31360
O	 -0.396277866	 1.275533891	 -0.580985367
H	 0.189832134	 1.284213891	 -1.340668367
H	 0.152992134	 1.601558891	 0.135065633
C	 -3.110208000	 1.144977000	 -0.620728000
S	 -2.707703000	 -0.583358000	 -0.238959000
H	 -1.379422000	 -0.424593000	 -0.239937000
H	 -2.704740000	 1.438707000	 -1.583687000
H	 -2.748134000	 1.812574000	 0.154635000
H	 -4.193859000	 1.210314000	 -0.661830000
