9
0  1  0  1  0  1   3   6  3.19888  3.71815  3.40803  2.88876  3.33807  3.07706  7.08751  7.08717  7.08420  3.62670 -10.19338 22.14909 -3.81303 -4.51597
O	 -0.091898471	 -0.319981749	 -1.566917519
H	 0.079416529	 -0.772117749	 -2.395738519
H	 0.769713529	 -0.279206749	 -1.146585519
C	 -3.110208000	 1.144977000	 -0.620728000
S	 -2.707703000	 -0.583358000	 -0.238959000
H	 -1.379422000	 -0.424593000	 -0.239937000
H	 -2.704740000	 1.438707000	 -1.583687000
H	 -2.748134000	 1.812574000	 0.154635000
H	 -4.193859000	 1.210314000	 -0.661830000
