9
0  1  0  1  0  1   3   6 -1.28118 -1.13997 -1.17448 -1.31569 -1.21088 -1.26854 -0.06908 -0.06671 -0.05975 -1.25455 -1.81916  2.53747 -0.57220 -1.40067
O	 0.281414581	 0.462606028	 1.424733867
H	 1.162464581	 0.335926028	 1.066372867
H	 0.408365581	 0.392674028	 2.373264867
C	 -3.110208000	 1.144977000	 -0.620728000
S	 -2.707703000	 -0.583358000	 -0.238959000
H	 -1.379422000	 -0.424593000	 -0.239937000
H	 -2.704740000	 1.438707000	 -1.583687000
H	 -2.748134000	 1.812574000	 0.154635000
H	 -4.193859000	 1.210314000	 -0.661830000
