9
0  1  0  1  0  1   3   6 -0.36023  0.05341 -0.29531 -0.70895 -0.36148 -0.56274  2.69585  2.69423  2.69332  0.04091 -7.94702 14.94769 -3.32236 -3.63740
O	 0.824550000	 0.240941000	 -0.328033000
H	 1.418677000	 -0.049953000	 -1.023097000
H	 1.381841000	 0.267392000	 0.452637000
C	 -2.338893286	 1.710317129	 0.840241161
S	 -1.921451286	 0.000507129	 1.284300161
H	 -0.745834286	 -0.030048871	 0.646704161
H	 -2.420775286	 1.827374129	 -0.235660839
H	 -1.607645286	 2.408039129	 1.235757161
H	 -3.304705286	 1.921784129	 1.290515161
