12
0  1  0  1  0  1   6   6 -2.08011 -1.58446 -2.20706 -2.70271 -2.36297 -2.55211  2.79167  2.78525  2.80249 -1.61725 -5.65498 11.35647 -2.48179 -4.83694
C	 -0.538670000	 0.826680000	 2.141420000
S	 -1.062100000	 0.704760000	 0.408130000
H	 0.000000000	 0.000000000	 0.000000000
H	 0.410250000	 1.347170000	 2.229630000
H	 -0.468070000	 -0.154950000	 2.598620000
H	 -1.303370000	 1.401330000	 2.656530000
C	 2.843527359	 0.433489129	 0.168470000
S	 2.117867359	 -1.222750871	 0.000000000
H	 1.901737359	 -1.163040871	 -1.317070000
H	 2.111667359	 1.205569129	 -0.051000000
H	 3.155497359	 0.522329129	 1.205590000
H	 3.717197359	 0.541769129	 -0.465900000
