12
0  1  0  1  0  1   6   6 -2.43084 -2.03393 -2.51982 -2.91673 -2.65936 -2.80288  1.55181  1.54572  1.55821 -2.09749 -4.09627  7.63891 -1.69134 -3.94879
C	 -0.538670000	 0.826680000	 2.141420000
S	 -1.062100000	 0.704760000	 0.408130000
H	 0.000000000	 0.000000000	 0.000000000
H	 0.410250000	 1.347170000	 2.229630000
H	 -0.468070000	 -0.154950000	 2.598620000
H	 -1.303370000	 1.401330000	 2.656530000
C	 2.961186657	 0.365558525	 0.168470000
S	 2.235526657	 -1.290681475	 0.000000000
H	 2.019396657	 -1.230971475	 -1.317070000
H	 2.229326657	 1.137638525	 -0.051000000
H	 3.273156657	 0.454398525	 1.205590000
H	 3.834856657	 0.473838525	 -0.465900000
