12
0  1  0  1  0  1   6   6 -0.83321 -0.75802 -0.79598 -0.87117 -0.84242 -0.85917  0.11138  0.11139  0.11108 -0.80286 -0.20926  0.41448 -0.07949 -0.92859
C	 2.053060000	 2.132430000	 2.785230000
S	 2.678390000	 0.431960000	 2.887740000
H	 2.268040000	 0.067860000	 1.666930000
H	 0.976100000	 2.147390000	 2.647170000
H	 2.538190000	 2.679890000	 1.983630000
H	 2.292140000	 2.608300000	 3.732180000
C	 -1.387929346	 -0.041526995	 0.795990520
S	 -1.387929346	 -0.041526995	 -1.020079480
H	 -1.120919346	 -1.341496995	 -1.174169480
H	 -0.399449346	 -0.264386995	 1.187330520
H	 -1.672899346	 0.962713005	 1.097880520
H	 -2.120999346	 -0.740626995	 1.184980520
