12
0  1  0  1  0  1   6   6 -1.83793 -1.67089 -1.86208 -2.02912 -1.92773 -1.98267 -0.12989 -0.12895 -0.12024 -1.80164 -1.58273  1.97451 -0.40814 -1.78529
C	 3.438610000	 2.132430000	 -0.385390000
S	 3.840050000	 0.431960000	 -0.875690000
H	 2.577630000	 0.067860000	 -1.130720000
H	 2.780560000	 2.147390000	 0.478260000
H	 2.986970000	 2.679890000	 -1.206320000
H	 4.378230000	 2.608300000	 -0.118960000
C	 -0.272137154	 -0.007164421	 1.935447460
S	 -0.272137154	 -0.007164421	 0.119377460
H	 -0.005127154	 -1.307134421	 -0.034712540
H	 0.716342846	 -0.230024421	 2.326787460
H	 -0.557107154	 0.997075579	 2.237337460
H	 -1.005207154	 -0.706264421	 2.324437460
