12
0  1  0  1  0  1   6   6 -2.27049 -2.01029 -2.22714 -2.48734 -2.35592 -2.43167  0.47474  0.47115  0.47170 -2.11258 -1.48426  2.57574 -0.49229 -2.71177
C	 3.812050000	 0.261430000	 1.385550000
S	 3.475200000	 -1.507620000	 1.161660000
H	 2.456770000	 -1.340050000	 0.309590000
H	 2.952020000	 0.775240000	 1.804470000
H	 4.102520000	 0.725880000	 0.448780000
H	 4.639340000	 0.333280000	 2.086090000
C	 -0.273565025	 0.149216578	 1.781596689
S	 -0.273565025	 0.149216578	 -0.034473311
H	 -0.006555025	 -1.150753422	 -0.188563311
H	 0.714914975	 -0.073643422	 2.172936689
H	 -0.558535025	 1.153456578	 2.083486689
H	 -1.006635025	 -0.549883422	 2.170586689
