12
0  1  0  1  0  1   6   6  8.51025  9.61162  8.52259  7.42122  8.28822  7.78233 19.31613 19.30560 19.29456  9.20842 -14.31563 39.74611 -5.06002 -11.16204
C	 -0.538670000	 0.826680000	 2.141420000
S	 -1.062100000	 0.704760000	 0.408130000
H	 0.000000000	 0.000000000	 0.000000000
H	 0.410250000	 1.347170000	 2.229630000
H	 -0.468070000	 -0.154950000	 2.598620000
H	 -1.303370000	 1.401330000	 2.656530000
C	 2.085796914	 1.797170000	 1.398772115
S	 2.342966914	 -0.000000000	 1.352712115
H	 2.813546914	 -0.056360000	 0.103582115
H	 1.312316914	 2.099880000	 0.698782115
H	 1.762756914	 2.030100000	 2.409822115
H	 3.011356914	 2.327780000	 1.200642115
