12
0  1  0  1  0  1   6   6 -0.03245  0.53634 -0.13245 -0.70124 -0.26987 -0.50932  5.20328  5.19991  5.22347  0.54162 -7.75185 16.44463 -2.91645 -5.23471
C	 3.438610000	 2.132430000	 -0.385390000
S	 3.840050000	 0.431960000	 -0.875690000
H	 2.577630000	 0.067860000	 -1.130720000
H	 2.780560000	 2.147390000	 0.478260000
H	 2.986970000	 2.679890000	 -1.206320000
H	 4.378230000	 2.608300000	 -0.118960000
C	 0.406378835	 0.010698536	 1.637805208
S	 0.406378835	 0.010698536	 -0.178264792
H	 0.673388835	 -1.289271464	 -0.332354792
H	 1.394858835	 -0.212161464	 2.029145208
H	 0.121408835	 1.014938536	 1.939695208
H	 -0.326691165	 -0.688401464	 2.026795208
