12
0  1  0  1  0  1   6   6 -2.49891 -2.18005 -2.56247 -2.88133 -2.68635 -2.79520  0.75795  0.75254  0.76172 -2.27460 -3.00246  5.11774 -1.15916 -3.23073
C	 -0.538670000	 0.826680000	 2.141420000
S	 -1.062100000	 0.704760000	 0.408130000
H	 0.000000000	 0.000000000	 0.000000000
H	 0.410250000	 1.347170000	 2.229630000
H	 -0.468070000	 -0.154950000	 2.598620000
H	 -1.303370000	 1.401330000	 2.656530000
C	 3.078845955	 0.297627921	 0.168470000
S	 2.353185955	 -1.358612079	 0.000000000
H	 2.137055955	 -1.298902079	 -1.317070000
H	 2.346985955	 1.069707921	 -0.051000000
H	 3.390815955	 0.386467921	 1.205590000
H	 3.952515955	 0.405907921	 -0.465900000
