12
0  1  0  1  0  1   6   6  1.89338  2.84574  1.92903  0.97667  1.71652  1.29065 10.35245 10.34305 10.34744  2.59342 -12.56678 27.57043 -3.80212 -8.60812
C	 -0.538670000	 0.826680000	 2.141420000
S	 -1.062100000	 0.704760000	 0.408130000
H	 0.000000000	 0.000000000	 0.000000000
H	 0.410250000	 1.347170000	 2.229630000
H	 -0.468070000	 -0.154950000	 2.598620000
H	 -1.303370000	 1.401330000	 2.656530000
C	 1.272202796	 2.809708524	 0.168470000
S	 2.343722796	 1.353148524	 0.000000000
H	 2.183942796	 1.195828524	 -1.317070000
H	 0.237632796	 2.561938524	 -0.051000000
H	 1.351252796	 3.124308524	 1.205590000
H	 1.615272796	 3.620468524	 -0.465900000
