12
0  1  0  1  0  1   6   6 -2.71877 -2.48570 -2.73575 -2.96882 -2.83704 -2.91043 -0.23263 -0.23256 -0.22592 -2.64543 -1.97258  2.36290 -0.52540 -2.51035
C	 -3.020730000	 0.414950000	 -0.642870000
S	 -2.684520000	 0.512780000	 1.137740000
H	 -1.673050000	 1.382910000	 1.032270000
H	 -2.157710000	 0.041290000	 -1.185740000
H	 -3.318990000	 1.380540000	 -1.038190000
H	 -3.842420000	 -0.285170000	 -0.765220000
C	 1.060770785	 0.043395658	 -0.556074293
S	 1.046230785	 1.854635658	 -0.424494293
H	 1.464560785	 1.920435658	 0.842645707
H	 0.319770785	 -0.402674342	 0.101065707
H	 0.807200785	 -0.186404342	 -1.587444293
H	 2.048420785	 -0.353964342	 -0.346054293
