12
0  1  0  1  0  1   6   6 -0.71721 -0.43073 -0.57181 -0.85829 -0.68894 -0.78843  2.38903  2.38341  2.37966 -0.44091 -1.86647  5.26547 -0.75360 -3.08631
C	 2.053060000	 2.132430000	 2.785230000
S	 2.678390000	 0.431960000	 2.887740000
H	 2.268040000	 0.067860000	 1.666930000
H	 0.976100000	 2.147390000	 2.647170000
H	 2.538190000	 2.679890000	 1.983630000
H	 2.292140000	 2.608300000	 3.732180000
C	 -0.723207647	 -0.021638450	 1.284537698
S	 -0.723207647	 -0.021638450	 -0.531532302
H	 -0.456197647	 -1.321608450	 -0.685622302
H	 0.265272353	 -0.244498450	 1.675877698
H	 -1.008177647	 0.982601550	 1.586427698
H	 -1.456277647	 -0.720738450	 1.673527698
