12
0  1  0  1  0  1   6   6 15.82670 17.53363 15.82515 14.11820 15.55390 14.71373 29.69090 29.67634 29.65227 16.18520 -29.10214 68.50774 -8.90776 -14.31263
C	 -0.538670000	 0.826680000	 2.141420000
S	 -1.062100000	 0.704760000	 0.408130000
H	 0.000000000	 0.000000000	 0.000000000
H	 0.410250000	 1.347170000	 2.229630000
H	 -0.468070000	 -0.154950000	 2.598620000
H	 -1.303370000	 1.401330000	 2.656530000
C	 0.979237446	 2.640564958	 0.168470000
S	 2.050757447	 1.184004958	 0.000000000
H	 1.890977446	 1.026684958	 -1.317070000
H	 -0.055332554	 2.392794959	 -0.051000000
H	 1.058287446	 2.955164958	 1.205590000
H	 1.322307446	 3.451324958	 -0.465900000
