12
0  1  0  1  0  1   6   6 -2.71153 -2.29132 -2.73968 -3.15990 -2.87667 -3.03538  1.15028  1.14345  1.15539 -2.41820 -4.81610  7.89871 -1.60671 -3.89410
C	 -0.538670000	 0.826680000	 2.141420000
S	 -1.062100000	 0.704760000	 0.408130000
H	 0.000000000	 0.000000000	 0.000000000
H	 0.410250000	 1.347170000	 2.229630000
H	 -0.468070000	 -0.154950000	 2.598620000
H	 -1.303370000	 1.401330000	 2.656530000
C	 2.228928035	 1.797170000	 -1.092336938
S	 2.317618035	 -0.000000000	 -1.338076938
H	 1.471128035	 -0.056360000	 -2.370176938
H	 1.235968035	 2.099880000	 -0.772476938
H	 2.942998035	 2.030100000	 -0.307046938
H	 2.520108035	 2.327780000	 -1.992956938
