12
0  1  0  1  0  1   6   6  0.66712  1.52511  0.67731 -0.18068  0.43242  0.07830  8.78243  8.76569  8.76647  1.57637 -9.21239 22.64484 -3.76477 -8.09131
C	 3.812050000	 0.261430000	 1.385550000
S	 3.475200000	 -1.507620000	 1.161660000
H	 2.456770000	 -1.340050000	 0.309590000
H	 2.952020000	 0.775240000	 1.804470000
H	 4.102520000	 0.725880000	 0.448780000
H	 4.639340000	 0.333280000	 2.086090000
C	 0.376514743	 -0.205370703	 1.863516525
S	 0.376514743	 -0.205370703	 0.047446525
H	 0.643524743	 -1.505340703	 -0.106643475
H	 1.364994743	 -0.428230703	 2.254856525
H	 0.091544743	 0.798869297	 2.165406525
H	 -0.356555257	 -0.904470703	 2.252506525
