12
0  1  0  1  0  1   6   6 -2.45981 -2.25304 -2.47562 -2.68239 -2.55970 -2.62726 -0.44106 -0.44177 -0.43379 -2.41977 -2.10394  2.27245 -0.52084 -2.06745
C	 -0.538670000	 0.826680000	 2.141420000
S	 -1.062100000	 0.704760000	 0.408130000
H	 0.000000000	 0.000000000	 0.000000000
H	 0.410250000	 1.347170000	 2.229630000
H	 -0.468070000	 -0.154950000	 2.598620000
H	 -1.303370000	 1.401330000	 2.656530000
C	 2.594867725	 1.797170000	 -1.303612244
S	 2.683557725	 -0.000000000	 -1.549352244
H	 1.837067725	 -0.056360000	 -2.581452244
H	 1.601907725	 2.099880000	 -0.983752244
H	 3.308937725	 2.030100000	 -0.518322244
H	 2.886047725	 2.327780000	 -2.204232244
