12
0  1  0  1  0  1   6   6 -2.40324 -2.14689 -2.45085 -2.70720 -2.55951 -2.64191  0.26152  0.25722  0.26428 -2.26282 -2.23153  3.41677 -0.79970 -2.64837
C	 -0.538670000	 0.826680000	 2.141420000
S	 -1.062100000	 0.704760000	 0.408130000
H	 0.000000000	 0.000000000	 0.000000000
H	 0.410250000	 1.347170000	 2.229630000
H	 -0.468070000	 -0.154950000	 2.598620000
H	 -1.303370000	 1.401330000	 2.656530000
C	 3.196505252	 0.229697317	 0.168470000
S	 2.470845252	 -1.426542683	 0.000000000
H	 2.254715252	 -1.366832683	 -1.317070000
H	 2.464645252	 1.001777317	 -0.051000000
H	 3.508475252	 0.318537317	 1.205590000
H	 4.070175252	 0.337977317	 -0.465900000
