12
0  1  0  1  0  1   6   6  0.90641  1.52321  0.96559  0.34879  0.79181  0.53663  7.52740  7.52278  7.52502  1.46674 -6.24387 16.40841 -2.00440 -6.69339
C	 -0.538670000	 0.826680000	 2.141420000
S	 -1.062100000	 0.704760000	 0.408130000
H	 0.000000000	 0.000000000	 0.000000000
H	 0.410250000	 1.347170000	 2.229630000
H	 -0.468070000	 -0.154950000	 2.598620000
H	 -1.303370000	 1.401330000	 2.656530000
C	 2.420506473	 1.797170000	 1.592016703
S	 2.677676473	 -0.000000000	 1.545956703
H	 3.148256473	 -0.056360000	 0.296826703
H	 1.647026473	 2.099880000	 0.892026703
H	 2.097466473	 2.030100000	 2.603066703
H	 3.346066473	 2.327780000	 1.393886703
