12
0  1  0  1  0  1   6   6 -2.48932 -2.09844 -2.50894 -2.89982 -2.64719 -2.78862  1.56848  1.56245  1.57341 -2.21720 -3.48697  6.60726 -1.28122 -4.05627
C	 1.679620000	 3.432050000	 1.385550000
S	 3.043240000	 2.255800000	 1.161660000
H	 2.388900000	 1.457600000	 0.309590000
H	 0.804630000	 2.944150000	 1.804470000
H	 1.422630000	 3.915820000	 0.448780000
H	 2.031040000	 4.184420000	 2.086090000
C	 0.047957167	 0.029261320	 1.822285019
S	 0.047957167	 0.029261320	 0.006215019
H	 0.314967167	 -1.270708680	 -0.147874981
H	 1.036437167	 -0.193598680	 2.213625019
H	 -0.237012833	 1.033501320	 2.124175019
H	 -0.685112833	 -0.669838680	 2.211275019
