12
0  1  0  1  0  1   6   6  0.39130  1.24912  0.25576 -0.60206  0.06386 -0.31122  7.80109  7.79123  7.81469  1.13993 -12.64724 26.45386 -5.18660 -7.48010
C	 -0.538670000	 0.826680000	 2.141420000
S	 -1.062100000	 0.704760000	 0.408130000
H	 0.000000000	 0.000000000	 0.000000000
H	 0.410250000	 1.347170000	 2.229630000
H	 -0.468070000	 -0.154950000	 2.598620000
H	 -1.303370000	 1.401330000	 2.656530000
C	 1.862988345	 1.797170000	 -0.881061632
S	 1.951678345	 -0.000000000	 -1.126801632
H	 1.105188345	 -0.056360000	 -2.158901632
H	 0.870028345	 2.099880000	 -0.561201632
H	 2.577058345	 2.030100000	 -0.095771632
H	 2.154168345	 2.327780000	 -1.781681632
