12
0  1  0  1  0  1   6   6 -2.78394 -2.48005 -2.76762 -3.07151 -2.87871 -2.98695  0.36209  0.36178  0.36941 -2.64467 -2.74405  4.02873 -0.70062 -3.22872
C	 -0.538670000	 0.826680000	 2.141420000
S	 -1.062100000	 0.704760000	 0.408130000
H	 0.000000000	 0.000000000	 0.000000000
H	 0.410250000	 1.347170000	 2.229630000
H	 -0.468070000	 -0.154950000	 2.598620000
H	 -1.303370000	 1.401330000	 2.656530000
C	 1.858133495	 3.147995655	 0.168470000
S	 2.929653495	 1.691435655	 0.000000000
H	 2.769873495	 1.534115655	 -1.317070000
H	 0.823563495	 2.900225655	 -0.051000000
H	 1.937183495	 3.462595655	 1.205590000
H	 2.201203495	 3.958755655	 -0.465900000
