12
0  1  0  1  0  1   6   6 -2.11984 -1.62167 -2.15227 -2.65044 -2.30886 -2.50076  2.93464  2.92678  2.93998 -1.70234 -4.89644 10.13478 -1.90350 -5.03719
C	 1.679620000	 3.432050000	 1.385550000
S	 3.043240000	 2.255800000	 1.161660000
H	 2.388900000	 1.457600000	 0.309590000
H	 0.804630000	 2.944150000	 1.804470000
H	 1.422630000	 3.915820000	 0.448780000
H	 2.031040000	 4.184420000	 2.086090000
C	 0.171164685	 0.104437040	 1.838252124
S	 0.171164685	 0.104437040	 0.022182123
H	 0.438174685	 -1.195532960	 -0.131907877
H	 1.159644685	 -0.118422960	 2.229592123
H	 -0.113805315	 1.108677040	 2.140142123
H	 -0.561905315	 -0.594662960	 2.227242123
