12
0  1  0  1  0  1   6   6  2.63183  3.19895  2.84773  2.28061  2.68932  2.44756  8.34765  8.33921  8.32624  3.17737 -5.89813 17.30411 -2.43380 -5.79481
C	 2.053060000	 2.132430000	 2.785230000
S	 2.678390000	 0.431960000	 2.887740000
H	 2.268040000	 0.067860000	 1.666930000
H	 0.976100000	 2.147390000	 2.647170000
H	 2.538190000	 2.679890000	 1.983630000
H	 2.292140000	 2.608300000	 3.732180000
C	 -0.390846797	 -0.011694178	 1.528811287
S	 -0.390846797	 -0.011694178	 -0.287258713
H	 -0.123836797	 -1.311664178	 -0.441348713
H	 0.597633203	 -0.234554178	 1.920151287
H	 -0.675816797	 0.992545822	 1.830701287
H	 -1.123916797	 -0.710794178	 1.917801287
