12
0  1  0  1  0  1   6   6 -1.92045 -1.64799 -1.95123 -2.22369 -2.04397 -2.14286  0.74591  0.74454  0.75641 -1.75331 -2.80881  4.64360 -0.86436 -2.72373
C	 3.438610000	 2.132430000	 -0.385390000
S	 3.840050000	 0.431960000	 -0.875690000
H	 2.577630000	 0.067860000	 -1.130720000
H	 2.780560000	 2.147390000	 0.478260000
H	 2.986970000	 2.679890000	 -1.206320000
H	 4.378230000	 2.608300000	 -0.118960000
C	 -0.000730758	 -0.000019238	 1.816390559
S	 -0.000730758	 -0.000019238	 0.000320559
H	 0.266279242	 -1.299989238	 -0.153769441
H	 0.987749242	 -0.222879238	 2.207730559
H	 -0.285700758	 1.004220762	 2.118280559
H	 -0.733800758	 -0.699119238	 2.205380559
