12
0  1  0  1  0  1   6   6 -2.58401 -1.98781 -2.62831 -3.22451 -2.81193 -3.04505  3.15790  3.14888  3.16167 -2.06849 -6.54043 12.58730 -2.36736 -5.74800
C	 -3.020730000	 0.414950000	 -0.642870000
S	 -2.684520000	 0.512780000	 1.137740000
H	 -1.673050000	 1.382910000	 1.032270000
H	 -2.157710000	 0.041290000	 -1.185740000
H	 -3.318990000	 1.380540000	 -1.038190000
H	 -3.842420000	 -0.285170000	 -0.765220000
C	 0.566356097	 -0.042372643	 -0.291208058
S	 0.551816097	 1.768867357	 -0.159628058
H	 0.970146097	 1.834667357	 1.107511942
H	 -0.174643903	 -0.488442643	 0.365931942
H	 0.312786097	 -0.272172643	 -1.322578058
H	 1.554006097	 -0.439732643	 -0.081188058
