12
0  1  0  1  0  1   6   6 -1.33139 -1.22384 -1.31042 -1.41797 -1.36754 -1.39512  0.11958  0.12043  0.12415 -1.29432 -0.57332  0.88022 -0.14778 -1.45344
C	 -0.538670000	 0.826680000	 2.141420000
S	 -1.062100000	 0.704760000	 0.408130000
H	 0.000000000	 0.000000000	 0.000000000
H	 0.410250000	 1.347170000	 2.229630000
H	 -0.468070000	 -0.154950000	 2.598620000
H	 -1.303370000	 1.401330000	 2.656530000
C	 3.424635150	 1.797170000	 2.171750467
S	 3.681805150	 -0.000000000	 2.125690467
H	 4.152385150	 -0.056360000	 0.876560467
H	 2.651155150	 2.099880000	 1.471760467
H	 3.101595150	 2.030100000	 3.182800467
H	 4.350195150	 2.327780000	 1.973620467
