12
0  1  0  1  0  1   6   6 -1.10032 -0.95230 -1.01792 -1.16594 -1.09633 -1.13722  0.59829  0.59595  0.59443 -0.99882 -0.60061  1.51011 -0.23511 -1.67320
C	 2.053060000	 2.132430000	 2.785230000
S	 2.678390000	 0.431960000	 2.887740000
H	 2.268040000	 0.067860000	 1.666930000
H	 0.976100000	 2.147390000	 2.647170000
H	 2.538190000	 2.679890000	 1.983630000
H	 2.292140000	 2.608300000	 3.732180000
C	 -1.055568496	 -0.031582723	 1.040264109
S	 -1.055568496	 -0.031582723	 -0.775805891
H	 -0.788558496	 -1.331552723	 -0.929895891
H	 -0.067088496	 -0.254442723	 1.431604109
H	 -1.340538496	 0.972657277	 1.342154109
H	 -1.788638496	 -0.730682723	 1.429254109
