12
0  1  0  1  0  1   6   6 -0.98847 -0.88252 -0.93116 -1.03711 -0.99241 -1.01863  0.27456  0.27364  0.27275 -0.93125 -0.34940  0.79497 -0.13472 -1.24210
C	 2.053060000	 2.132430000	 2.785230000
S	 2.678390000	 0.431960000	 2.887740000
H	 2.268040000	 0.067860000	 1.666930000
H	 0.976100000	 2.147390000	 2.647170000
H	 2.538190000	 2.679890000	 1.983630000
H	 2.292140000	 2.608300000	 3.732180000
C	 -1.221748921	 -0.036554859	 0.918127314
S	 -1.221748921	 -0.036554859	 -0.897942686
H	 -0.954738921	 -1.336524859	 -1.052032686
H	 -0.233268921	 -0.259414859	 1.309467314
H	 -1.506718921	 0.967685141	 1.220017314
H	 -1.954818921	 -0.735654859	 1.307117314
