12
0  1  0  1  0  1   6   6  8.61028  9.97677  8.36026  6.99377  8.12623  7.47665 20.72880 20.71326 20.72541  9.45819 -21.00811 52.47793 -9.72025 -12.29139
C	 1.679620000	 3.432050000	 1.385550000
S	 3.043240000	 2.255800000	 1.161660000
H	 2.388900000	 1.457600000	 0.309590000
H	 0.804630000	 2.944150000	 1.804470000
H	 1.422630000	 3.915820000	 0.448780000
H	 2.031040000	 4.184420000	 2.086090000
C	 0.663994755	 0.405139920	 1.902120541
S	 0.663994755	 0.405139920	 0.086050540
H	 0.931004755	 -0.894830080	 -0.068039460
H	 1.652474755	 0.182279920	 2.293460540
H	 0.379024755	 1.409379920	 2.204010541
H	 -0.069075245	 -0.293960080	 2.291110541
