12
0  1  0  1  0  1   6   6 -2.31910 -1.78813 -2.36798 -2.89895 -2.52318 -2.73397  2.47903  2.47094  2.48622 -1.87879 -6.56134 11.87642 -2.36575 -4.82812
C	 -0.538670000	 0.826680000	 2.141420000
S	 -1.062100000	 0.704760000	 0.408130000
H	 0.000000000	 0.000000000	 0.000000000
H	 0.410250000	 1.347170000	 2.229630000
H	 -0.468070000	 -0.154950000	 2.598620000
H	 -1.303370000	 1.401330000	 2.656530000
C	 2.106948138	 1.797170000	 -1.021911836
S	 2.195638138	 -0.000000000	 -1.267651836
H	 1.349148138	 -0.056360000	 -2.299751836
H	 1.113988138	 2.099880000	 -0.702051836
H	 2.821018138	 2.030100000	 -0.236621836
H	 2.398128138	 2.327780000	 -1.922531836
