12
0  1  0  1  0  1   6   6 -2.20447 -1.66770 -2.16929 -2.70606 -2.32836 -2.54329  2.95356  2.94899  2.95710 -1.82499 -5.64534 10.69627 -1.62166 -5.25426
C	 -0.538670000	 0.826680000	 2.141420000
S	 -1.062100000	 0.704760000	 0.408130000
H	 0.000000000	 0.000000000	 0.000000000
H	 0.410250000	 1.347170000	 2.229630000
H	 -0.468070000	 -0.154950000	 2.598620000
H	 -1.303370000	 1.401330000	 2.656530000
C	 1.565168146	 2.978852090	 0.168470000
S	 2.636688146	 1.522292090	 0.000000000
H	 2.476908146	 1.364972090	 -1.317070000
H	 0.530598146	 2.731082090	 -0.051000000
H	 1.644218146	 3.293452089	 1.205590000
H	 1.908238146	 3.789612090	 -0.465900000
