12
0  1  0  1  0  1   6   6 -2.78152 -2.44877 -2.79925 -3.13200 -2.91808 -3.03763  0.32769  0.32256  0.33233 -2.60377 -3.59085  5.23164 -1.09670 -3.14787
C	 -0.538670000	 0.826680000	 2.141420000
S	 -1.062100000	 0.704760000	 0.408130000
H	 0.000000000	 0.000000000	 0.000000000
H	 0.410250000	 1.347170000	 2.229630000
H	 -0.468070000	 -0.154950000	 2.598620000
H	 -1.303370000	 1.401330000	 2.656530000
C	 2.350907932	 1.797170000	 -1.162762040
S	 2.439597932	 -0.000000000	 -1.408502040
H	 1.593107932	 -0.056360000	 -2.440602040
H	 1.357947932	 2.099880000	 -0.842902040
H	 3.064977932	 2.030100000	 -0.377472040
H	 2.642087932	 2.327780000	 -2.063382040
