12
0  1  0  1  0  1   6   6 -2.95848 -2.66240 -2.97318 -3.26925 -3.09408 -3.19236  0.10505  0.10248  0.10957 -2.82162 -2.59409  3.61134 -0.75777 -3.08110
C	 -3.020730000	 0.414950000	 -0.642870000
S	 -2.684520000	 0.512780000	 1.137740000
H	 -1.673050000	 1.382910000	 1.032270000
H	 -2.157710000	 0.041290000	 -1.185740000
H	 -3.318990000	 1.380540000	 -1.038190000
H	 -3.842420000	 -0.285170000	 -0.765220000
C	 0.937167113	 0.021953583	 -0.489857734
S	 0.922627113	 1.833193583	 -0.358277734
H	 1.340957113	 1.898993583	 0.908862266
H	 0.196167113	 -0.424116417	 0.167282266
H	 0.683597113	 -0.207846417	 -1.521227734
H	 1.924817113	 -0.375406417	 -0.279837734
