12
0  1  0  1  0  1   6   6 -1.93416 -1.72045 -1.95946 -2.17317 -2.03835 -2.11211  0.19880  0.19849  0.20840 -1.84569 -2.08319  3.03041 -0.58998 -2.20294
C	 3.438610000	 2.132430000	 -0.385390000
S	 3.840050000	 0.431960000	 -0.875690000
H	 2.577630000	 0.067860000	 -1.130720000
H	 2.780560000	 2.147390000	 0.478260000
H	 2.986970000	 2.679890000	 -1.206320000
H	 4.378230000	 2.608300000	 -0.118960000
C	 -0.136433956	 -0.003591830	 1.875919010
S	 -0.136433956	 -0.003591830	 0.059849010
H	 0.130576044	 -1.303561830	 -0.094240990
H	 0.852046044	 -0.226451830	 2.267259010
H	 -0.421403956	 1.000648170	 2.177809010
H	 -0.869503956	 -0.702691830	 2.264909010
