13
0  1  0  1  0  1   3  10 -2.30641 -2.20522 -2.19007 -2.29126 -2.21139 -2.25557 -1.47322 -1.46783 -1.46308 -2.27526 -1.94959  1.12929 -0.31231 -1.14266
O	 -5.724806448	 1.805369915	 2.037354397
H	 -5.400122448	 2.319925915	 1.293543397
H	 -6.510696448	 2.277542915	 2.320309397
C	 -3.546776000	 -0.481931000	 0.591520000
O	 -1.627661000	 0.158046000	 -1.132406000
S	 -2.263925000	 0.691077000	 0.115119000
C	 -1.152926000	 0.298441000	 1.478987000
H	 -3.959576000	 -0.193985000	 1.555567000
H	 -4.312989000	 -0.438873000	 -0.178064000
H	 -3.103695000	 -1.475720000	 0.616603000
H	 -1.627579000	 0.566204000	 2.420108000
H	 -0.916338000	 -0.762663000	 1.427498000
H	 -0.250773000	 0.885377000	 1.327912000
