13
0  1  0  1  0  1   3  10 -2.01685 -1.94663 -1.93650 -2.00673 -1.95101 -1.98101 -1.44712 -1.44220 -1.43695 -1.99716 -1.54440  0.57418 -0.20150 -0.82543
O	 -1.876229668	 3.191074224	 3.612727319
H	 -1.899897668	 3.592117224	 2.739773319
H	 -1.814474668	 3.939495224	 4.209961319
C	 -3.546776000	 -0.481931000	 0.591520000
O	 -1.627661000	 0.158046000	 -1.132406000
S	 -2.263925000	 0.691077000	 0.115119000
C	 -1.152926000	 0.298441000	 1.478987000
H	 -3.959576000	 -0.193985000	 1.555567000
H	 -4.312989000	 -0.438873000	 -0.178064000
H	 -3.103695000	 -1.475720000	 0.616603000
H	 -1.627579000	 0.566204000	 2.420108000
H	 -0.916338000	 -0.762663000	 1.427498000
H	 -0.250773000	 0.885377000	 1.327912000
