13
0  1  0  1  0  1   3  10 -1.83456 -1.52524 -1.52370 -1.83302 -1.57530 -1.72622  0.65179  0.65422  0.64966 -1.65489 -5.26136  8.05159 -1.30999 -3.13513
O	 -5.212942140	 1.578129954	 1.782161027
H	 -4.888258140	 2.092685954	 1.038350027
H	 -5.998832140	 2.050302954	 2.065116027
C	 -3.546776000	 -0.481931000	 0.591520000
O	 -1.627661000	 0.158046000	 -1.132406000
S	 -2.263925000	 0.691077000	 0.115119000
C	 -1.152926000	 0.298441000	 1.478987000
H	 -3.959576000	 -0.193985000	 1.555567000
H	 -4.312989000	 -0.438873000	 -0.178064000
H	 -3.103695000	 -1.475720000	 0.616603000
H	 -1.627579000	 0.566204000	 2.420108000
H	 -0.916338000	 -0.762663000	 1.427498000
H	 -0.250773000	 0.885377000	 1.327912000
