13
0  1  0  1  0  1   3  10 24.42535 25.87081 25.42304 23.97758 25.25964 24.50325 35.17319 35.14199 35.10596 24.78478 -33.76531 81.22714 -9.63185 -13.04520
O	 -3.247545236	 0.615795377	 2.834106787
H	 -3.291440236	 1.392371377	 2.269796787
H	 -3.646913236	 0.904687377	 3.657320787
C	 -3.546776000	 -0.481931000	 0.591520000
O	 -1.627661000	 0.158046000	 -1.132406000
S	 -2.263925000	 0.691077000	 0.115119000
C	 -1.152926000	 0.298441000	 1.478987000
H	 -3.959576000	 -0.193985000	 1.555567000
H	 -4.312989000	 -0.438873000	 -0.178064000
H	 -3.103695000	 -1.475720000	 0.616603000
H	 -1.627579000	 0.566204000	 2.420108000
H	 -0.916338000	 -0.762663000	 1.427498000
H	 -0.250773000	 0.885377000	 1.327912000
