13
0  1  0  1  0  1   3  10  1.51393  2.22829  2.04490  1.33054  1.95014  1.57537  6.90822  6.90170  6.86243  1.79512 -15.94448 28.50430 -3.45760 -7.30710
O	 -3.458443603	 1.721093636	 2.431419311
H	 -3.284900603	 2.147920636	 1.588125311
H	 -3.876569603	 2.406756636	 2.956464311
C	 -3.911412000	 -1.071319000	 2.093337000
O	 -1.730714000	 -1.556702000	 0.653389000
S	 -2.375472000	 -0.430009000	 1.401802000
C	 -1.517564000	 -0.290952000	 2.980813000
H	 -4.357805000	 -0.319763000	 2.740331000
H	 -4.567094000	 -1.288143000	 1.254132000
H	 -3.682710000	 -1.989858000	 2.630505000
H	 -2.025814000	 0.440425000	 3.604888000
H	 -1.495352000	 -1.276814000	 3.441410000
H	 -0.504879000	 0.036097000	 2.760119000
