13
0  1  0  1  0  1   3  10 -3.04977 -2.96549 -2.94830 -3.03257 -2.97273 -3.00256 -2.22902 -2.22449 -2.21318 -3.11029 -2.54847  1.16731 -0.39062 -1.33851
O	 -3.868686712	 2.675319221	 2.698912360
H	 -3.695143712	 3.102146221	 1.855618360
H	 -4.286812712	 3.360982221	 3.223957360
C	 -3.911412000	 -1.071319000	 2.093337000
O	 -1.730714000	 -1.556702000	 0.653389000
S	 -2.375472000	 -0.430009000	 1.401802000
C	 -1.517564000	 -0.290952000	 2.980813000
H	 -4.357805000	 -0.319763000	 2.740331000
H	 -4.567094000	 -1.288143000	 1.254132000
H	 -3.682710000	 -1.989858000	 2.630505000
H	 -2.025814000	 0.440425000	 3.604888000
H	 -1.495352000	 -1.276814000	 3.441410000
H	 -0.504879000	 0.036097000	 2.760119000
