13
0  1  0  1  0  1   3  10 -3.38233 -3.26418 -3.24493 -3.36308 -3.27522 -3.32158 -2.23756 -2.23135 -2.22082 -3.45389 -3.15806  2.01947 -0.54422 -1.77109
O	 -3.800312861	 2.516281623	 2.654330185
H	 -3.626769861	 2.943108623	 1.811036185
H	 -4.218438861	 3.201944623	 3.179375185
C	 -3.911412000	 -1.071319000	 2.093337000
O	 -1.730714000	 -1.556702000	 0.653389000
S	 -2.375472000	 -0.430009000	 1.401802000
C	 -1.517564000	 -0.290952000	 2.980813000
H	 -4.357805000	 -0.319763000	 2.740331000
H	 -4.567094000	 -1.288143000	 1.254132000
H	 -3.682710000	 -1.989858000	 2.630505000
H	 -2.025814000	 0.440425000	 3.604888000
H	 -1.495352000	 -1.276814000	 3.441410000
H	 -0.504879000	 0.036097000	 2.760119000
