13
0  1  0  1  0  1   3  10  2.52671  3.44244  3.19009  2.27436  3.08377  2.59031  8.86870  8.86310  8.80261  3.11246 -18.53505 34.42933 -4.60373 -8.17809
O	 -3.142786634	 2.041988813	 2.311621797
H	 -2.969243634	 2.468815813	 1.468327797
H	 -3.560912634	 2.727651813	 2.836666797
C	 -1.888249000	 -0.128489000	 0.994982000
O	 0.207262000	 1.223449000	 0.075421000
S	 -0.987519000	 1.432192000	 0.955307000
C	 -0.405994000	 1.341672000	 2.658907000
H	 -2.702149000	 -0.057678000	 1.712796000
H	 -2.277894000	 -0.291600000	 -0.006400000
H	 -1.184655000	 -0.918439000	 1.250915000
H	 -1.258188000	 1.374478000	 3.333733000
H	 0.169748000	 0.424907000	 2.771292000
H	 0.237399000	 2.203178000	 2.817175000
