13
0  1  0  1  0  1   3  10 -2.27661 -2.16299 -2.15738 -2.27099 -2.17788 -2.23040 -1.16985 -1.16862 -1.16551 -2.18129 -2.57654  2.25193 -0.42094 -1.43574
O	 -3.637933618	 3.640015265	 1.228697638
H	 -3.293459618	 3.602722265	 0.332377638
H	 -3.962772618	 4.538728265	 1.314891638
C	 -3.546776000	 -0.481931000	 0.591520000
O	 -1.627661000	 0.158046000	 -1.132406000
S	 -2.263925000	 0.691077000	 0.115119000
C	 -1.152926000	 0.298441000	 1.478987000
H	 -3.959576000	 -0.193985000	 1.555567000
H	 -4.312989000	 -0.438873000	 -0.178064000
H	 -3.103695000	 -1.475720000	 0.616603000
H	 -1.627579000	 0.566204000	 2.420108000
H	 -0.916338000	 -0.762663000	 1.427498000
H	 -0.250773000	 0.885377000	 1.327912000
