13
0  1  0  1  0  1   3  10 -3.61797 -3.45067 -3.43345 -3.60075 -3.47125 -3.54252 -2.03570 -2.02862 -2.02009 -3.68995 -4.05070  3.47597 -0.76686 -2.34836
O	 -3.731939009	 2.357244026	 2.609748010
H	 -3.558396009	 2.784071026	 1.766454010
H	 -4.150065009	 3.042907026	 3.134793010
C	 -3.911412000	 -1.071319000	 2.093337000
O	 -1.730714000	 -1.556702000	 0.653389000
S	 -2.375472000	 -0.430009000	 1.401802000
C	 -1.517564000	 -0.290952000	 2.980813000
H	 -4.357805000	 -0.319763000	 2.740331000
H	 -4.567094000	 -1.288143000	 1.254132000
H	 -3.682710000	 -1.989858000	 2.630505000
H	 -2.025814000	 0.440425000	 3.604888000
H	 -1.495352000	 -1.276814000	 3.441410000
H	 -0.504879000	 0.036097000	 2.760119000
