13
0  1  0  1  0  1   3  10 -3.10051 -2.75959 -2.78103 -3.12194 -2.84128 -3.00405 -0.14646 -0.14244 -0.14366 -3.09716 -7.47787 10.09998 -1.57947 -4.13979
O	 -3.595191306	 2.039168831	 2.520583660
H	 -3.421648306	 2.465995831	 1.677289660
H	 -4.013317306	 2.724831831	 3.045628660
C	 -3.911412000	 -1.071319000	 2.093337000
O	 -1.730714000	 -1.556702000	 0.653389000
S	 -2.375472000	 -0.430009000	 1.401802000
C	 -1.517564000	 -0.290952000	 2.980813000
H	 -4.357805000	 -0.319763000	 2.740331000
H	 -4.567094000	 -1.288143000	 1.254132000
H	 -3.682710000	 -1.989858000	 2.630505000
H	 -2.025814000	 0.440425000	 3.604888000
H	 -1.495352000	 -1.276814000	 3.441410000
H	 -0.504879000	 0.036097000	 2.760119000
