13
0  1  0  1  0  1   3  10 23.30414 25.23871 24.38510 22.45053 24.22083 23.09568 34.71469 34.69283 34.45178 23.72216 -43.48220 93.69073 -11.99500 -14.49136
O	 -2.848930630	 1.911544026	 2.165107883
H	 -2.675387630	 2.338371026	 1.321813883
H	 -3.267056630	 2.597207026	 2.690152883
C	 -1.888249000	 -0.128489000	 0.994982000
O	 0.207262000	 1.223449000	 0.075421000
S	 -0.987519000	 1.432192000	 0.955307000
C	 -0.405994000	 1.341672000	 2.658907000
H	 -2.702149000	 -0.057678000	 1.712796000
H	 -2.277894000	 -0.291600000	 -0.006400000
H	 -1.184655000	 -0.918439000	 1.250915000
H	 -1.258188000	 1.374478000	 3.333733000
H	 0.169748000	 0.424907000	 2.771292000
H	 0.237399000	 2.203178000	 2.817175000
