13
0  1  0  1  0  1   3  10 -3.27359 -2.77626 -2.87869 -3.37602 -2.95418 -3.20360  0.57389  0.57585  0.56271 -2.94136 -9.21286 13.49956 -2.27171 -4.95636
O	 -3.543826288	 2.076339188	 2.349349251
H	 -3.370283288	 2.503166188	 1.506055251
H	 -3.961952288	 2.762002188	 2.874394251
C	 -3.546776000	 -0.481931000	 0.591520000
O	 -1.627661000	 0.158046000	 -1.132406000
S	 -2.263925000	 0.691077000	 0.115119000
C	 -1.152926000	 0.298441000	 1.478987000
H	 -3.959576000	 -0.193985000	 1.555567000
H	 -4.312989000	 -0.438873000	 -0.178064000
H	 -3.103695000	 -1.475720000	 0.616603000
H	 -1.627579000	 0.566204000	 2.420108000
H	 -0.916338000	 -0.762663000	 1.427498000
H	 -0.250773000	 0.885377000	 1.327912000
