13
0  1  0  1  0  1   3  10 -2.32552 -2.14823 -2.09692 -2.27420 -2.15249 -2.22248 -0.80085 -0.79780 -0.79691 -2.23487 -2.32542  2.48739 -0.54763 -1.84921
O	 -3.721027570	 0.789572341	 3.958289351
H	 -3.764922570	 1.566148341	 3.393979351
H	 -4.120395570	 1.078464341	 4.781503351
C	 -3.546776000	 -0.481931000	 0.591520000
O	 -1.627661000	 0.158046000	 -1.132406000
S	 -2.263925000	 0.691077000	 0.115119000
C	 -1.152926000	 0.298441000	 1.478987000
H	 -3.959576000	 -0.193985000	 1.555567000
H	 -4.312989000	 -0.438873000	 -0.178064000
H	 -3.103695000	 -1.475720000	 0.616603000
H	 -1.627579000	 0.566204000	 2.420108000
H	 -0.916338000	 -0.762663000	 1.427498000
H	 -0.250773000	 0.885377000	 1.327912000
