13
0  1  0  1  0  1   3  10 -3.19725 -2.75046 -2.79674 -3.24353 -2.86544 -3.08922  0.31094  0.31510  0.30278 -3.00478 -8.67017 12.25175 -1.95337 -4.63300
O	 -3.436642637	 2.172433601	 2.458135711
H	 -3.263099637	 2.599260601	 1.614841711
H	 -3.854768637	 2.858096601	 2.983180711
C	 -1.888249000	 -0.128489000	 0.994982000
O	 0.207262000	 1.223449000	 0.075421000
S	 -0.987519000	 1.432192000	 0.955307000
C	 -0.405994000	 1.341672000	 2.658907000
H	 -2.702149000	 -0.057678000	 1.712796000
H	 -2.277894000	 -0.291600000	 -0.006400000
H	 -1.184655000	 -0.918439000	 1.250915000
H	 -1.258188000	 1.374478000	 3.333733000
H	 0.169748000	 0.424907000	 2.771292000
H	 0.237399000	 2.203178000	 2.817175000
