13
0  1  0  1  0  1   3  10 -4.16851 -3.91318 -3.93829 -4.19362 -3.98776 -4.10728 -2.05364 -2.04707 -2.04827 -4.09534 -4.93092  4.66804 -1.01416 -2.81830
O	 -3.698274664	 2.283965380	 2.583379368
H	 -3.524731664	 2.710792380	 1.740085368
H	 -4.116400664	 2.969628380	 3.108424368
C	 -3.546776000	 -0.481931000	 0.591520000
O	 -1.627661000	 0.158046000	 -1.132406000
S	 -2.263925000	 0.691077000	 0.115119000
C	 -1.152926000	 0.298441000	 1.478987000
H	 -3.959576000	 -0.193985000	 1.555567000
H	 -4.312989000	 -0.438873000	 -0.178064000
H	 -3.103695000	 -1.475720000	 0.616603000
H	 -1.627579000	 0.566204000	 2.420108000
H	 -0.916338000	 -0.762663000	 1.427498000
H	 -0.250773000	 0.885377000	 1.327912000
