13
0  1  0  1  0  1   3  10 21.39040 22.66855 21.87777 20.59962 21.78742 21.07174 31.57017 31.57112 31.50243 22.98657 -35.75160 79.17540 -10.10282 -10.33440
O	 -3.197094437	 2.614506224	 0.941209754
H	 -2.852620437	 2.577213224	 0.044889754
H	 -3.521933437	 3.513219224	 1.027403754
C	 -3.546776000	 -0.481931000	 0.591520000
O	 -1.627661000	 0.158046000	 -1.132406000
S	 -2.263925000	 0.691077000	 0.115119000
C	 -1.152926000	 0.298441000	 1.478987000
H	 -3.959576000	 -0.193985000	 1.555567000
H	 -4.312989000	 -0.438873000	 -0.178064000
H	 -3.103695000	 -1.475720000	 0.616603000
H	 -1.627579000	 0.566204000	 2.420108000
H	 -0.916338000	 -0.762663000	 1.427498000
H	 -0.250773000	 0.885377000	 1.327912000
