13
0  1  0  1  0  1   3  10 -2.47048 -2.25730 -2.24065 -2.45382 -2.28066 -2.38058 -0.73112 -0.72710 -0.72666 -2.37371 -3.58406  4.24083 -0.79886 -2.23162
O	 -5.383563576	 1.653876607	 1.867225484
H	 -5.058879576	 2.168432607	 1.123414484
H	 -6.169453576	 2.126049607	 2.150180484
C	 -3.546776000	 -0.481931000	 0.591520000
O	 -1.627661000	 0.158046000	 -1.132406000
S	 -2.263925000	 0.691077000	 0.115119000
C	 -1.152926000	 0.298441000	 1.478987000
H	 -3.959576000	 -0.193985000	 1.555567000
H	 -4.312989000	 -0.438873000	 -0.178064000
H	 -3.103695000	 -1.475720000	 0.616603000
H	 -1.627579000	 0.566204000	 2.420108000
H	 -0.916338000	 -0.762663000	 1.427498000
H	 -0.250773000	 0.885377000	 1.327912000
