13
0  1  0  1  0  1   3  10 -3.84855 -3.53152 -3.54175 -3.85878 -3.59699 -3.75023 -1.25013 -1.24311 -1.24760 -3.76935 -6.21366  7.23563 -1.30240 -3.48892
O	 -3.712754426	 2.195542487	 2.483499824
H	 -3.539211426	 2.622369487	 1.640205824
H	 -4.130880426	 2.881205487	 3.008544824
C	 -5.251288000	 -0.237866000	 0.862603000
O	 -4.022032000	 -0.155285000	 -1.492520000
S	 -3.929494000	 0.473117000	 -0.135384000
C	 -2.587273000	 -0.356383000	 0.735816000
H	 -5.152578000	 0.104945000	 1.889949000
H	 -6.188509000	 0.108370000	 0.434895000
H	 -5.187799000	 -1.321622000	 0.785098000
H	 -2.557401000	 -0.010529000	 1.766444000
H	 -2.753589000	 -1.429915000	 0.669230000
H	 -1.667838000	 -0.092740000	 0.219746000
