13
0  1  0  1  0  1   3  10 -2.08600 -2.00686 -1.99907 -2.07822 -2.01383 -2.04983 -1.32383 -1.32225 -1.31935 -2.03740 -1.95137  1.23543 -0.27091 -1.05055
O	 -3.711406815	 3.810933438	 1.276612285
H	 -3.366932815	 3.773640438	 0.380292285
H	 -4.036245815	 4.709646438	 1.362806285
C	 -3.546776000	 -0.481931000	 0.591520000
O	 -1.627661000	 0.158046000	 -1.132406000
S	 -2.263925000	 0.691077000	 0.115119000
C	 -1.152926000	 0.298441000	 1.478987000
H	 -3.959576000	 -0.193985000	 1.555567000
H	 -4.312989000	 -0.438873000	 -0.178064000
H	 -3.103695000	 -1.475720000	 0.616603000
H	 -1.627579000	 0.566204000	 2.420108000
H	 -0.916338000	 -0.762663000	 1.427498000
H	 -0.250773000	 0.885377000	 1.327912000
