13
0  1  0  1  0  1   3  10 -3.88569 -3.65933 -3.65464 -3.88101 -3.69863 -3.80384 -1.96939 -1.96067 -1.96013 -3.86987 -4.61011  4.25121 -0.88081 -2.63016
O	 -3.701275303	 2.312405104	 2.615483714
H	 -3.527732303	 2.739232104	 1.772189714
H	 -4.119401303	 2.998068104	 3.140528714
C	 -5.251288000	 -0.237866000	 0.862603000
O	 -4.022032000	 -0.155285000	 -1.492520000
S	 -3.929494000	 0.473117000	 -0.135384000
C	 -2.587273000	 -0.356383000	 0.735816000
H	 -5.152578000	 0.104945000	 1.889949000
H	 -6.188509000	 0.108370000	 0.434895000
H	 -5.187799000	 -1.321622000	 0.785098000
H	 -2.557401000	 -0.010529000	 1.766444000
H	 -2.753589000	 -1.429915000	 0.669230000
H	 -1.667838000	 -0.092740000	 0.219746000
