13
0  1  0  1  0  1   3  10 -3.88576 -3.65935 -3.65469 -3.88110 -3.69868 -3.80391 -1.96937 -1.96065 -1.96011 -3.86989 -4.61019  4.25133 -0.88084 -2.63019
O	 -3.730498640	 2.302878388	 2.604649624
H	 -3.556955640	 2.729705388	 1.761355624
H	 -4.148624640	 2.988541388	 3.129694624
C	 -1.888249000	 -0.128489000	 0.994982000
O	 0.207262000	 1.223449000	 0.075421000
S	 -0.987519000	 1.432192000	 0.955307000
C	 -0.405994000	 1.341672000	 2.658907000
H	 -2.702149000	 -0.057678000	 1.712796000
H	 -2.277894000	 -0.291600000	 -0.006400000
H	 -1.184655000	 -0.918439000	 1.250915000
H	 -1.258188000	 1.374478000	 3.333733000
H	 0.169748000	 0.424907000	 2.771292000
H	 0.237399000	 2.203178000	 2.817175000
