13
0  1  0  1  0  1   3  10 -3.62782 -3.46559 -3.45723 -3.61946 -3.49159 -3.56376 -2.22162 -2.21228 -2.20813 -3.64228 -3.53954  2.48699 -0.60422 -1.98551
O	 -3.877426642	 2.368100782	 2.677906581
H	 -3.703883642	 2.794927782	 1.834612581
H	 -4.295552642	 3.053763782	 3.202951581
C	 -1.888249000	 -0.128489000	 0.994982000
O	 0.207262000	 1.223449000	 0.075421000
S	 -0.987519000	 1.432192000	 0.955307000
C	 -0.405994000	 1.341672000	 2.658907000
H	 -2.702149000	 -0.057678000	 1.712796000
H	 -2.277894000	 -0.291600000	 -0.006400000
H	 -1.184655000	 -0.918439000	 1.250915000
H	 -1.258188000	 1.374478000	 3.333733000
H	 0.169748000	 0.424907000	 2.771292000
H	 0.237399000	 2.203178000	 2.817175000
