13
0  1  0  1  0  1   3  10 -2.51486 -2.36794 -2.34924 -2.49616 -2.37910 -2.44537 -1.30618 -1.30106 -1.29774 -2.46203 -2.57568  2.20248 -0.49488 -1.59395
O	 -1.902890133	 2.919671962	 3.306180787
H	 -1.926558133	 3.320714962	 2.433226787
H	 -1.841135133	 3.668092962	 3.903414787
C	 -3.546776000	 -0.481931000	 0.591520000
O	 -1.627661000	 0.158046000	 -1.132406000
S	 -2.263925000	 0.691077000	 0.115119000
C	 -1.152926000	 0.298441000	 1.478987000
H	 -3.959576000	 -0.193985000	 1.555567000
H	 -4.312989000	 -0.438873000	 -0.178064000
H	 -3.103695000	 -1.475720000	 0.616603000
H	 -1.627579000	 0.566204000	 2.420108000
H	 -0.916338000	 -0.762663000	 1.427498000
H	 -0.250773000	 0.885377000	 1.327912000
