13
0  1  0  1  0  1   3  10 -3.26086 -2.97908 -3.01894 -3.30073 -3.07842 -3.21040 -0.82892 -0.82724 -0.83543 -2.98579 -3.38397  4.43353 -1.28680 -2.74856
O	 -3.741767519	 2.304932827	 2.682257622
H	 -3.568224519	 2.731759827	 1.838963622
H	 -4.159893519	 2.990595827	 3.207302622
C	 -3.548460000	 0.762430000	 -0.498139000
O	 -2.084440000	 2.460836000	 -1.925218000
S	 -2.541723000	 2.257380000	 -0.512855000
C	 -1.154611000	 1.542810000	 0.389323000
H	 -3.808769000	 0.512313000	 0.527719000
H	 -4.443417000	 0.980966000	 -1.074758000
H	 -2.982059000	 -0.031306000	 -0.981605000
H	 -1.476769000	 1.272511000	 1.392245000
H	 -0.794706000	 0.681767000	 -0.170713000
H	 -0.381203000	 2.305230000	 0.431212000
