13
0  1  0  1  0  1   3  10  4.17758  4.83667  4.70910  4.05000  4.62887  4.28572  9.16989  9.16814  9.14801  4.62140 -12.95258 27.38587 -3.59720 -6.21469
O	 -4.871699268	 1.426636646	 1.612032113
H	 -4.547015268	 1.941192646	 0.868221113
H	 -5.657589268	 1.898809646	 1.894987113
C	 -3.546776000	 -0.481931000	 0.591520000
O	 -1.627661000	 0.158046000	 -1.132406000
S	 -2.263925000	 0.691077000	 0.115119000
C	 -1.152926000	 0.298441000	 1.478987000
H	 -3.959576000	 -0.193985000	 1.555567000
H	 -4.312989000	 -0.438873000	 -0.178064000
H	 -3.103695000	 -1.475720000	 0.616603000
H	 -1.627579000	 0.566204000	 2.420108000
H	 -0.916338000	 -0.762663000	 1.427498000
H	 -0.250773000	 0.885377000	 1.327912000
