13
0  1  0  1  0  1   3  10 -3.90637 -3.72155 -3.73556 -3.92039 -3.77502 -3.85811 -2.35085 -2.34335 -2.34111 -3.88667 -3.78991  2.72282 -0.69099 -2.12860
O	 -3.775498852	 2.387778476	 2.700394427
H	 -3.601955852	 2.814605476	 1.857100427
H	 -4.193624852	 3.073441476	 3.225439427
C	 -3.546776000	 -0.481931000	 0.591520000
O	 -1.627661000	 0.158046000	 -1.132406000
S	 -2.263925000	 0.691077000	 0.115119000
C	 -1.152926000	 0.298441000	 1.478987000
H	 -3.959576000	 -0.193985000	 1.555567000
H	 -4.312989000	 -0.438873000	 -0.178064000
H	 -3.103695000	 -1.475720000	 0.616603000
H	 -1.627579000	 0.566204000	 2.420108000
H	 -0.916338000	 -0.762663000	 1.427498000
H	 -0.250773000	 0.885377000	 1.327912000
