13
0  1  0  1  0  1   3  10 -3.61079 -3.37255 -3.36625 -3.60450 -3.41392 -3.52200 -1.44130 -1.43480 -1.42982 -3.66327 -5.39759  5.94508 -1.09358 -3.11718
O	 -3.663565158	 2.198206428	 2.565165835
H	 -3.490022158	 2.625033428	 1.721871835
H	 -4.081691158	 2.883869428	 3.090210835
C	 -3.911412000	 -1.071319000	 2.093337000
O	 -1.730714000	 -1.556702000	 0.653389000
S	 -2.375472000	 -0.430009000	 1.401802000
C	 -1.517564000	 -0.290952000	 2.980813000
H	 -4.357805000	 -0.319763000	 2.740331000
H	 -4.567094000	 -1.288143000	 1.254132000
H	 -3.682710000	 -1.989858000	 2.630505000
H	 -2.025814000	 0.440425000	 3.604888000
H	 -1.495352000	 -1.276814000	 3.441410000
H	 -0.504879000	 0.036097000	 2.760119000
