13
0  1  0  1  0  1   3  10 -1.84236 -1.78724 -1.78067 -1.83580 -1.79054 -1.81547 -1.32046 -1.31857 -1.31563 -1.81728 -1.54294  0.67808 -0.17855 -0.77387
O	 -3.784880012	 3.981851612	 1.324526933
H	 -3.440406012	 3.944558612	 0.428206933
H	 -4.109719012	 4.880564612	 1.410720933
C	 -3.546776000	 -0.481931000	 0.591520000
O	 -1.627661000	 0.158046000	 -1.132406000
S	 -2.263925000	 0.691077000	 0.115119000
C	 -1.152926000	 0.298441000	 1.478987000
H	 -3.959576000	 -0.193985000	 1.555567000
H	 -4.312989000	 -0.438873000	 -0.178064000
H	 -3.103695000	 -1.475720000	 0.616603000
H	 -1.627579000	 0.566204000	 2.420108000
H	 -0.916338000	 -0.762663000	 1.427498000
H	 -0.250773000	 0.885377000	 1.327912000
