13
0  1  0  1  0  1   3  10 -2.34391 -1.79685 -1.94303 -2.49009 -2.03123 -2.30410  2.02505  2.02135  2.00334 -1.69154 -6.81620 13.40704 -3.30962 -4.97275
O	 -3.603424217	 2.254148656	 2.353753064
H	 -3.429881217	 2.680975656	 1.510459064
H	 -4.021550217	 2.939811656	 2.878798064
C	 -3.548460000	 0.762430000	 -0.498139000
O	 -2.084440000	 2.460836000	 -1.925218000
S	 -2.541723000	 2.257380000	 -0.512855000
C	 -1.154611000	 1.542810000	 0.389323000
H	 -3.808769000	 0.512313000	 0.527719000
H	 -4.443417000	 0.980966000	 -1.074758000
H	 -2.982059000	 -0.031306000	 -0.981605000
H	 -1.476769000	 1.272511000	 1.392245000
H	 -0.794706000	 0.681767000	 -0.170713000
H	 -0.381203000	 2.305230000	 0.431212000
