13
0  1  0  1  0  1   3  10 -1.89691 -1.65751 -1.68873 -1.92813 -1.72398 -1.83967  0.41933  0.41991  0.42544 -1.54569 -5.21561  7.48025 -1.09418 -2.71616
O	 -3.490987225	 3.298178918	 1.132868343
H	 -3.146513225	 3.260885918	 0.236548343
H	 -3.815826225	 4.196891918	 1.219062343
C	 -3.546776000	 -0.481931000	 0.591520000
O	 -1.627661000	 0.158046000	 -1.132406000
S	 -2.263925000	 0.691077000	 0.115119000
C	 -1.152926000	 0.298441000	 1.478987000
H	 -3.959576000	 -0.193985000	 1.555567000
H	 -4.312989000	 -0.438873000	 -0.178064000
H	 -3.103695000	 -1.475720000	 0.616603000
H	 -1.627579000	 0.566204000	 2.420108000
H	 -0.916338000	 -0.762663000	 1.427498000
H	 -0.250773000	 0.885377000	 1.327912000
