13
0  1  0  1  0  1   3  10 -2.29482 -2.03953 -1.98266 -2.23795 -2.05062 -2.16056 -0.13855 -0.13645 -0.14034 -2.13547 -3.39877  4.72706 -0.88888 -2.57489
O	 -3.642113847	 0.760609513	 3.770925590
H	 -3.686008847	 1.537185513	 3.206615590
H	 -4.041481847	 1.049501513	 4.594139590
C	 -3.546776000	 -0.481931000	 0.591520000
O	 -1.627661000	 0.158046000	 -1.132406000
S	 -2.263925000	 0.691077000	 0.115119000
C	 -1.152926000	 0.298441000	 1.478987000
H	 -3.959576000	 -0.193985000	 1.555567000
H	 -4.312989000	 -0.438873000	 -0.178064000
H	 -3.103695000	 -1.475720000	 0.616603000
H	 -1.627579000	 0.566204000	 2.420108000
H	 -0.916338000	 -0.762663000	 1.427498000
H	 -0.250773000	 0.885377000	 1.327912000
