13
0  1  0  1  0  1   3  10 23.30388 25.23840 24.38482 22.45029 24.22055 23.09544 34.71425 34.69239 34.45136 23.72199 -43.48111 93.68829 -11.99406 -14.49113
O	 -3.770150044	 1.611229400	 1.823580373
H	 -3.596607044	 2.038056400	 0.980286373
H	 -4.188276044	 2.296892400	 2.348625373
C	 -5.251288000	 -0.237866000	 0.862603000
O	 -4.022032000	 -0.155285000	 -1.492520000
S	 -3.929494000	 0.473117000	 -0.135384000
C	 -2.587273000	 -0.356383000	 0.735816000
H	 -5.152578000	 0.104945000	 1.889949000
H	 -6.188509000	 0.108370000	 0.434895000
H	 -5.187799000	 -1.321622000	 0.785098000
H	 -2.557401000	 -0.010529000	 1.766444000
H	 -2.753589000	 -1.429915000	 0.669230000
H	 -1.667838000	 -0.092740000	 0.219746000
