13
0  1  0  1  0  1   3  10 -3.00786 -2.80296 -2.82590 -3.03080 -2.87319 -2.96674 -1.19871 -1.19477 -1.20053 -2.84282 -2.49663  2.53280 -0.82498 -2.05401
O	 -3.810939170	 2.330324912	 2.846509901
H	 -3.637396170	 2.757151912	 2.003215901
H	 -4.229065170	 3.015987912	 3.371554901
C	 -3.548460000	 0.762430000	 -0.498139000
O	 -2.084440000	 2.460836000	 -1.925218000
S	 -2.541723000	 2.257380000	 -0.512855000
C	 -1.154611000	 1.542810000	 0.389323000
H	 -3.808769000	 0.512313000	 0.527719000
H	 -4.443417000	 0.980966000	 -1.074758000
H	 -2.982059000	 -0.031306000	 -0.981605000
H	 -1.476769000	 1.272511000	 1.392245000
H	 -0.794706000	 0.681767000	 -0.170713000
H	 -0.381203000	 2.305230000	 0.431212000
