13
0  1  0  1  0  1   3  10 -2.51500 -2.36809 -2.34936 -2.49627 -2.37924 -2.44550 -1.30649 -1.30137 -1.29805 -2.46218 -2.57538  2.20171 -0.49476 -1.59375
O	 -5.554185012	 1.729623261	 1.952289941
H	 -5.229501012	 2.244179261	 1.208478941
H	 -6.340075012	 2.201796261	 2.235244941
C	 -3.546776000	 -0.481931000	 0.591520000
O	 -1.627661000	 0.158046000	 -1.132406000
S	 -2.263925000	 0.691077000	 0.115119000
C	 -1.152926000	 0.298441000	 1.478987000
H	 -3.959576000	 -0.193985000	 1.555567000
H	 -4.312989000	 -0.438873000	 -0.178064000
H	 -3.103695000	 -1.475720000	 0.616603000
H	 -1.627579000	 0.566204000	 2.420108000
H	 -0.916338000	 -0.762663000	 1.427498000
H	 -0.250773000	 0.885377000	 1.327912000
