13
0  1  0  1  0  1   3  10 -1.82509 -1.73629 -1.70605 -1.79485 -1.73993 -1.76984 -1.07301 -1.07083 -1.06648 -1.79543 -1.26701  0.65817 -0.22179 -0.96479
O	 -3.878855014	 0.847497995	 4.333016872
H	 -3.922750014	 1.624073995	 3.768706872
H	 -4.278223014	 1.136389995	 5.156230872
C	 -3.546776000	 -0.481931000	 0.591520000
O	 -1.627661000	 0.158046000	 -1.132406000
S	 -2.263925000	 0.691077000	 0.115119000
C	 -1.152926000	 0.298441000	 1.478987000
H	 -3.959576000	 -0.193985000	 1.555567000
H	 -4.312989000	 -0.438873000	 -0.178064000
H	 -3.103695000	 -1.475720000	 0.616603000
H	 -1.627579000	 0.566204000	 2.420108000
H	 -0.916338000	 -0.762663000	 1.427498000
H	 -0.250773000	 0.885377000	 1.327912000
