13
0  1  0  1  0  1   3  10 -3.50328 -3.36873 -3.37907 -3.51362 -3.40967 -3.46775 -2.36565 -2.35793 -2.35316 -3.50954 -3.00170  1.58264 -0.47731 -1.61317
O	 -3.852723041	 2.491591572	 2.817409486
H	 -3.679180041	 2.918418572	 1.974115486
H	 -4.270849041	 3.177254572	 3.342454486
C	 -3.546776000	 -0.481931000	 0.591520000
O	 -1.627661000	 0.158046000	 -1.132406000
S	 -2.263925000	 0.691077000	 0.115119000
C	 -1.152926000	 0.298441000	 1.478987000
H	 -3.959576000	 -0.193985000	 1.555567000
H	 -4.312989000	 -0.438873000	 -0.178064000
H	 -3.103695000	 -1.475720000	 0.616603000
H	 -1.627579000	 0.566204000	 2.420108000
H	 -0.916338000	 -0.762663000	 1.427498000
H	 -0.250773000	 0.885377000	 1.327912000
