13
0  1  0  1  0  1   3  10  4.11553  5.32167  5.07178  3.86564  4.94113  4.33029  9.27221  9.24516  9.27106  4.20337 -39.05649 78.72805 -23.45487 -12.01333
O	 -3.662891736	 2.123538237	 0.021315104
H	 -2.731691736	 2.051253237	 0.283626104
H	 -3.804734736	 3.065324237	 -0.082657896
C	 -3.228946000	 -0.562414000	 0.903882000
O	 -1.614569000	 1.539642000	 0.825443000
S	 -2.022171000	 0.445434000	 1.779809000
C	 -0.684770000	 -0.757876000	 1.728833000
H	 -3.489854000	 -1.426692000	 1.511493000
H	 -4.097342000	 0.069482000	 0.736340000
H	 -2.798724000	 -0.860590000	 -0.050247000
H	 -0.966694000	 -1.647619000	 2.288311000
H	 -0.479518000	 -0.990635000	 0.685944000
H	 0.182771000	 -0.287975000	 2.183834000
