13
0  1  0  1  0  1   3  10 -3.49181 -2.74404 -2.69683 -3.44460 -2.80123 -3.16620  0.40533  0.39495  0.41150 -2.90080 -20.70052 33.29401 -8.19092 -7.30337
O	 -3.923165472	 2.441613492	 -0.013426131
H	 -2.991965472	 2.369328492	 0.248884869
H	 -4.065008472	 3.383399492	 -0.117399131
C	 -2.532444000	 0.408762000	 1.835234000
O	 -1.808426000	 2.906948000	 1.319612000
S	 -2.005578000	 1.994474000	 2.503996000
C	 -0.352794000	 1.467837000	 2.983739000
H	 -2.599104000	 -0.320731000	 2.639993000
H	 -3.505552000	 0.572500000	 1.379466000
H	 -1.815465000	 0.101425000	 1.076389000
H	 -0.418175000	 0.696155000	 3.748182000
H	 0.157847000	 1.105691000	 2.093785000
H	 0.157762000	 2.342699000	 3.376689000
