13
0  1  0  1  0  1   3  10 -7.99080 -7.68888 -7.61352 -7.91544 -7.67178 -7.81308 -6.63299 -6.63676 -6.63778 -7.72815 -9.52018  7.91913 -2.94631 -3.18079
O	 -3.390878794	 2.008097444	 -1.454317604
H	 -2.686152794	 2.036613444	 -0.788199604
H	 -3.419683794	 2.899820444	 -1.803448604
C	 -3.228946000	 -0.562414000	 0.903882000
O	 -1.614569000	 1.539642000	 0.825443000
S	 -2.022171000	 0.445434000	 1.779809000
C	 -0.684770000	 -0.757876000	 1.728833000
H	 -3.489854000	 -1.426692000	 1.511493000
H	 -4.097342000	 0.069482000	 0.736340000
H	 -2.798724000	 -0.860590000	 -0.050247000
H	 -0.966694000	 -1.647619000	 2.288311000
H	 -0.479518000	 -0.990635000	 0.685944000
H	 0.182771000	 -0.287975000	 2.183834000
