13
0  1  0  1  0  1   3  10 -8.54086 -8.03520 -8.00886 -8.51452 -8.09234 -8.33523 -5.94615 -5.95553 -5.95273 -8.05738 -14.84959 17.51183 -5.57272 -5.14691
O	 -4.061864142	 2.306256536	 -0.172190931
H	 -3.130664142	 2.233971536	 0.090120069
H	 -4.203707142	 3.248042536	 -0.276163931
C	 -3.228946000	 -0.562414000	 0.903882000
O	 -1.614569000	 1.539642000	 0.825443000
S	 -2.022171000	 0.445434000	 1.779809000
C	 -0.684770000	 -0.757876000	 1.728833000
H	 -3.489854000	 -1.426692000	 1.511493000
H	 -4.097342000	 0.069482000	 0.736340000
H	 -2.798724000	 -0.860590000	 -0.050247000
H	 -0.966694000	 -1.647619000	 2.288311000
H	 -0.479518000	 -0.990635000	 0.685944000
H	 0.182771000	 -0.287975000	 2.183834000
