13
0  1  0  1  0  1   3  10 -6.73490 -6.44642 -6.41827 -6.70676 -6.47484 -6.60339 -4.66506 -4.66447 -4.65136 -6.54876 -7.63171  6.43869 -2.12793 -3.22781
O	 -4.569127373	 2.528938109	 1.276864920
H	 -3.625292373	 2.453592109	 1.065527920
H	 -4.697431373	 3.463003109	 1.447013920
C	 -3.228946000	 -0.562414000	 0.903882000
O	 -1.614569000	 1.539642000	 0.825443000
S	 -2.022171000	 0.445434000	 1.779809000
C	 -0.684770000	 -0.757876000	 1.728833000
H	 -3.489854000	 -1.426692000	 1.511493000
H	 -4.097342000	 0.069482000	 0.736340000
H	 -2.798724000	 -0.860590000	 -0.050247000
H	 -0.966694000	 -1.647619000	 2.288311000
H	 -0.479518000	 -0.990635000	 0.685944000
H	 0.182771000	 -0.287975000	 2.183834000
