13
0  1  0  1  0  1   3  10 -5.75500 -5.40309 -5.28135 -5.63325 -5.34148 -5.50754 -3.65220 -3.65056 -3.64433 -5.63560 -9.45744  9.92778 -2.35769 -3.74825
O	 -4.131603560	 2.324783441	 -0.182979463
H	 -3.200403560	 2.252498441	 0.079331537
H	 -4.273446560	 3.266569441	 -0.286952463
C	 -4.585851000	 -0.521501000	 1.242844000
O	 -2.591227000	 1.120360000	 1.840146000
S	 -3.634572000	 0.286047000	 2.539858000
C	 -2.771009000	 -1.190147000	 3.100488000
H	 -5.295905000	 -1.213925000	 1.690742000
H	 -5.102601000	 0.266511000	 0.701105000
H	 -3.893183000	 -1.034417000	 0.578396000
H	 -3.486016000	 -1.908600000	 3.496378000
H	 -2.219424000	 -1.599632000	 2.256688000
H	 -2.081964000	 -0.878083000	 3.880420000
