13
0  1  0  1  0  1   3  10 -6.18556 -5.79892 -5.75674 -6.14338 -5.82269 -6.00791 -3.65397 -3.65636 -3.65594 -5.92202 -9.97991 10.80371 -2.74370 -4.00211
O	 -4.098402807	 2.273557085	 -0.212654524
H	 -3.167202807	 2.201272085	 0.049656476
H	 -4.240245807	 3.215343085	 -0.316627524
C	 -4.369563000	 -0.887245000	 -0.039089000
O	 -2.058988000	 0.413092000	 -0.002015000
S	 -2.759259000	 -0.696249000	 0.741778000
C	 -2.048563000	 -2.222704000	 0.106137000
H	 -4.885274000	 -1.740999000	 0.396096000
H	 -4.916600000	 0.032887000	 0.149544000
H	 -4.218658000	 -1.015214000	 -1.109235000
H	 -2.599558000	 -3.076792000	 0.494825000
H	 -2.085120000	 -2.185296000	 -0.980687000
H	 -1.016397000	 -2.257159000	 0.443637000
