13
0  1  0  1  0  1   3  10 -0.89801 -0.84395 -0.77033 -0.82439 -0.79008 -0.80782 -0.19679 -0.19017 -0.18521 -0.82210 -0.61549  0.86068 -0.22294 -0.84435
O	 -6.386288283	 0.603588370	 -0.807016006
H	 -5.519700283	 1.012899370	 -0.656497006
H	 -6.953920283	 1.337528370	 -1.045797006
C	 -3.228946000	 -0.562414000	 0.903882000
O	 -1.614569000	 1.539642000	 0.825443000
S	 -2.022171000	 0.445434000	 1.779809000
C	 -0.684770000	 -0.757876000	 1.728833000
H	 -3.489854000	 -1.426692000	 1.511493000
H	 -4.097342000	 0.069482000	 0.736340000
H	 -2.798724000	 -0.860590000	 -0.050247000
H	 -0.966694000	 -1.647619000	 2.288311000
H	 -0.479518000	 -0.990635000	 0.685944000
H	 0.182771000	 -0.287975000	 2.183834000
