13
0  1  0  1  0  1   3  10 -3.74802 -3.15134 -3.21946 -3.81615 -3.29891 -3.59415 -1.34940 -1.36823 -1.35926 -2.99018 -18.94137 32.01623 -9.96442 -6.10062
O	 -3.169505083	 3.298407587	 0.011272455
H	 -2.411776083	 2.758853587	 0.286760455
H	 -2.858494083	 4.200515587	 0.097085455
C	 -3.228946000	 -0.562414000	 0.903882000
O	 -1.614569000	 1.539642000	 0.825443000
S	 -2.022171000	 0.445434000	 1.779809000
C	 -0.684770000	 -0.757876000	 1.728833000
H	 -3.489854000	 -1.426692000	 1.511493000
H	 -4.097342000	 0.069482000	 0.736340000
H	 -2.798724000	 -0.860590000	 -0.050247000
H	 -0.966694000	 -1.647619000	 2.288311000
H	 -0.479518000	 -0.990635000	 0.685944000
H	 0.182771000	 -0.287975000	 2.183834000
