13
0  1  0  1  0  1   3  10 -8.18989 -7.75151 -7.70206 -8.14044 -7.77794 -7.98916 -6.21957 -6.22982 -6.23373 -7.70703 -13.12453 14.92406 -5.04487 -4.46169
O	 -3.288823194	 1.960766831	 -1.300637356
H	 -2.584097194	 1.989282831	 -0.634519356
H	 -3.317628194	 2.852489831	 -1.649768356
C	 -3.228946000	 -0.562414000	 0.903882000
O	 -1.614569000	 1.539642000	 0.825443000
S	 -2.022171000	 0.445434000	 1.779809000
C	 -0.684770000	 -0.757876000	 1.728833000
H	 -3.489854000	 -1.426692000	 1.511493000
H	 -4.097342000	 0.069482000	 0.736340000
H	 -2.798724000	 -0.860590000	 -0.050247000
H	 -0.966694000	 -1.647619000	 2.288311000
H	 -0.479518000	 -0.990635000	 0.685944000
H	 0.182771000	 -0.287975000	 2.183834000
