13
0  1  0  1  0  1   3  10 -0.70473 -0.68130 -0.63518 -0.65861 -0.64566 -0.65152 -0.36651 -0.36078 -0.35691 -0.67805 -0.36009  0.22359 -0.09040 -0.45115
O	 -6.776801412	 0.550914107	 -0.955210007
H	 -5.910213412	 0.960225107	 -0.804691007
H	 -7.344433412	 1.284854107	 -1.193991007
C	 -3.228946000	 -0.562414000	 0.903882000
O	 -1.614569000	 1.539642000	 0.825443000
S	 -2.022171000	 0.445434000	 1.779809000
C	 -0.684770000	 -0.757876000	 1.728833000
H	 -3.489854000	 -1.426692000	 1.511493000
H	 -4.097342000	 0.069482000	 0.736340000
H	 -2.798724000	 -0.860590000	 -0.050247000
H	 -0.966694000	 -1.647619000	 2.288311000
H	 -0.479518000	 -0.990635000	 0.685944000
H	 0.182771000	 -0.287975000	 2.183834000
