13
0  1  0  1  0  1   3  10 -7.75081 -7.22770 -7.20659 -7.72970 -7.29205 -7.54509 -5.40480 -5.41881 -5.41886 -7.14349 -15.64142 20.47162 -6.67421 -5.29949
O	 -3.237795394	 1.937101524	 -1.223797232
H	 -2.533069394	 1.965617524	 -0.557679232
H	 -3.266600394	 2.828824524	 -1.572928232
C	 -3.228946000	 -0.562414000	 0.903882000
O	 -1.614569000	 1.539642000	 0.825443000
S	 -2.022171000	 0.445434000	 1.779809000
C	 -0.684770000	 -0.757876000	 1.728833000
H	 -3.489854000	 -1.426692000	 1.511493000
H	 -4.097342000	 0.069482000	 0.736340000
H	 -2.798724000	 -0.860590000	 -0.050247000
H	 -0.966694000	 -1.647619000	 2.288311000
H	 -0.479518000	 -0.990635000	 0.685944000
H	 0.182771000	 -0.287975000	 2.183834000
