13
0  1  0  1  0  1   3  10 -6.07652 -5.69978 -5.56568 -5.94242 -5.64000 -5.81224 -3.87538 -3.87424 -3.86809 -5.84375 -9.27254  9.92824 -2.68101 -3.81844
O	 -4.219050340	 2.307208615	 -0.281107913
H	 -3.287850340	 2.234923615	 -0.018796913
H	 -4.360893340	 3.248994615	 -0.385080913
C	 -2.532444000	 0.408762000	 1.835234000
O	 -1.808426000	 2.906948000	 1.319612000
S	 -2.005578000	 1.994474000	 2.503996000
C	 -0.352794000	 1.467837000	 2.983739000
H	 -2.599104000	 -0.320731000	 2.639993000
H	 -3.505552000	 0.572500000	 1.379466000
H	 -1.815465000	 0.101425000	 1.076389000
H	 -0.418175000	 0.696155000	 3.748182000
H	 0.157847000	 1.105691000	 2.093785000
H	 0.157762000	 2.342699000	 3.376689000
