13
0  1  0  1  0  1   3  10  0.89725  1.19470  1.27112  0.97367  1.22045  1.07322  3.61574  3.61454  3.60372  1.30710 -4.09234 10.18529 -1.69563 -3.09023
O	 -5.605262027	 0.708936896	 -0.510628005
H	 -4.738674027	 1.118247896	 -0.360109005
H	 -6.172894027	 1.442876896	 -0.749409005
C	 -3.228946000	 -0.562414000	 0.903882000
O	 -1.614569000	 1.539642000	 0.825443000
S	 -2.022171000	 0.445434000	 1.779809000
C	 -0.684770000	 -0.757876000	 1.728833000
H	 -3.489854000	 -1.426692000	 1.511493000
H	 -4.097342000	 0.069482000	 0.736340000
H	 -2.798724000	 -0.860590000	 -0.050247000
H	 -0.966694000	 -1.647619000	 2.288311000
H	 -0.479518000	 -0.990635000	 0.685944000
H	 0.182771000	 -0.287975000	 2.183834000
