13
0  1  0  1  0  1   3  10  6.94770  7.53937  7.44971  6.85804  7.38603  7.07637 11.83952 11.84002 11.82954  7.52178 -11.82610 30.08086 -4.90331 -5.82967
O	 -5.214748898	 0.761611159	 -0.362434004
H	 -4.348160898	 1.170922159	 -0.211915004
H	 -5.782380898	 1.495551159	 -0.601215004
C	 -3.228946000	 -0.562414000	 0.903882000
O	 -1.614569000	 1.539642000	 0.825443000
S	 -2.022171000	 0.445434000	 1.779809000
C	 -0.684770000	 -0.757876000	 1.728833000
H	 -3.489854000	 -1.426692000	 1.511493000
H	 -4.097342000	 0.069482000	 0.736340000
H	 -2.798724000	 -0.860590000	 -0.050247000
H	 -0.966694000	 -1.647619000	 2.288311000
H	 -0.479518000	 -0.990635000	 0.685944000
H	 0.182771000	 -0.287975000	 2.183834000
