13
0  1  0  1  0  1   3  10 -4.66853 -3.91980 -3.99681 -4.74555 -4.10181 -4.46982 -1.40251 -1.42333 -1.41350 -3.89369 -22.83366 38.43871 -11.95791 -7.54083
O	 -3.135739795	 1.889770910	 -1.070116984
H	 -2.431013795	 1.918286910	 -0.403998984
H	 -3.164544795	 2.781493910	 -1.419247984
C	 -3.228946000	 -0.562414000	 0.903882000
O	 -1.614569000	 1.539642000	 0.825443000
S	 -2.022171000	 0.445434000	 1.779809000
C	 -0.684770000	 -0.757876000	 1.728833000
H	 -3.489854000	 -1.426692000	 1.511493000
H	 -4.097342000	 0.069482000	 0.736340000
H	 -2.798724000	 -0.860590000	 -0.050247000
H	 -0.966694000	 -1.647619000	 2.288311000
H	 -0.479518000	 -0.990635000	 0.685944000
H	 0.182771000	 -0.287975000	 2.183834000
