13
0  1  0  1  0  1   3  10 -6.52581 -6.12179 -6.09993 -6.50394 -6.16143 -6.36097 -4.90436 -4.91568 -4.91930 -5.96967 -12.84858 16.47416 -5.43157 -4.16369
O	 -3.269155968	 3.450809035	 -0.056062863
H	 -2.511426968	 2.911255035	 0.219425137
H	 -2.958144968	 4.352917035	 0.029750137
C	 -3.228946000	 -0.562414000	 0.903882000
O	 -1.614569000	 1.539642000	 0.825443000
S	 -2.022171000	 0.445434000	 1.779809000
C	 -0.684770000	 -0.757876000	 1.728833000
H	 -3.489854000	 -1.426692000	 1.511493000
H	 -4.097342000	 0.069482000	 0.736340000
H	 -2.798724000	 -0.860590000	 -0.050247000
H	 -0.966694000	 -1.647619000	 2.288311000
H	 -0.479518000	 -0.990635000	 0.685944000
H	 0.182771000	 -0.287975000	 2.183834000
