13
0  1  0  1  0  1   3  10 -3.11808 -2.38613 -2.45827 -3.19022 -2.55020 -2.92400  1.39691  1.38743  1.37845 -2.31147 -19.26773 30.61341 -6.57696 -7.08019
O	 -3.923421522	 1.991212861	 -0.220813178
H	 -2.992221522	 1.918927861	 0.041497822
H	 -4.065264522	 2.932998861	 -0.324786178
C	 -4.369563000	 -0.887245000	 -0.039089000
O	 -2.058988000	 0.413092000	 -0.002015000
S	 -2.759259000	 -0.696249000	 0.741778000
C	 -2.048563000	 -2.222704000	 0.106137000
H	 -4.885274000	 -1.740999000	 0.396096000
H	 -4.916600000	 0.032887000	 0.149544000
H	 -4.218658000	 -1.015214000	 -1.109235000
H	 -2.599558000	 -3.076792000	 0.494825000
H	 -2.085120000	 -2.185296000	 -0.980687000
H	 -1.016397000	 -2.257159000	 0.443637000
