13
0  1  0  1  0  1   3  10 -4.29104 -4.03177 -3.95871 -4.21798 -4.01877 -4.13133 -2.40364 -2.40534 -2.39917 -4.02880 -4.69864  4.78408 -1.49743 -2.61681
O	 -4.498713404	 2.351692312	 -0.118479786
H	 -3.567513404	 2.279407312	 0.143831214
H	 -4.640556404	 3.293478312	 -0.222452786
C	 -2.188463000	 -0.234919000	 0.027581000
O	 -1.306536000	 2.221789000	 -0.439100000
S	 -0.990135000	 1.041530000	 0.444711000
C	 0.428465000	 0.238280000	 -0.317889000
H	 -1.949424000	 -1.148293000	 0.568737000
H	 -3.162703000	 0.146242000	 0.322619000
H	 -2.162692000	 -0.390672000	 -1.049191000
H	 0.634093000	 -0.704356000	 0.185394000
H	 0.204774000	 0.087362000	 -1.371981000
H	 1.272517000	 0.913643000	 -0.208701000
