13
0  1  0  1  0  1   3  10 -6.88698 -6.26956 -6.32616 -6.94359 -6.41975 -6.71718 -3.14151 -3.15795 -3.14511 -6.32717 -16.21007 22.54214 -6.38582 -6.27342
O	 -4.203541305	 2.362765362	 1.233213117
H	 -3.259706305	 2.287419362	 1.021876117
H	 -4.331845305	 3.296830362	 1.403362117
C	 -3.228946000	 -0.562414000	 0.903882000
O	 -1.614569000	 1.539642000	 0.825443000
S	 -2.022171000	 0.445434000	 1.779809000
C	 -0.684770000	 -0.757876000	 1.728833000
H	 -3.489854000	 -1.426692000	 1.511493000
H	 -4.097342000	 0.069482000	 0.736340000
H	 -2.798724000	 -0.860590000	 -0.050247000
H	 -0.966694000	 -1.647619000	 2.288311000
H	 -0.479518000	 -0.990635000	 0.685944000
H	 0.182771000	 -0.287975000	 2.183834000
