13
0  1  0  1  0  1   3  10  4.02840  5.34924  4.99678  3.67594  4.85889  4.17886 10.26496 10.22910 10.23826  4.20119 -39.38458 77.36501 -21.26904 -12.51020
O	 -3.837955237	 2.196592615	 1.189561313
H	 -2.894120237	 2.121246615	 0.978224313
H	 -3.966259237	 3.130657615	 1.359710313
C	 -3.228946000	 -0.562414000	 0.903882000
O	 -1.614569000	 1.539642000	 0.825443000
S	 -2.022171000	 0.445434000	 1.779809000
C	 -0.684770000	 -0.757876000	 1.728833000
H	 -3.489854000	 -1.426692000	 1.511493000
H	 -4.097342000	 0.069482000	 0.736340000
H	 -2.798724000	 -0.860590000	 -0.050247000
H	 -0.966694000	 -1.647619000	 2.288311000
H	 -0.479518000	 -0.990635000	 0.685944000
H	 0.182771000	 -0.287975000	 2.183834000
