13
0  1  0  1  0  1   3  10 -6.38819 -6.21467 -6.14840 -6.32192 -6.17981 -6.26074 -5.75205 -5.75150 -5.74859 -6.24140 -6.75000  4.29157 -1.78295 -2.00003
O	 -3.468457739	 3.755611932	 -0.190733499
H	 -2.710728739	 3.216057932	 0.084754501
H	 -3.157446739	 4.657719932	 -0.104920499
C	 -3.228946000	 -0.562414000	 0.903882000
O	 -1.614569000	 1.539642000	 0.825443000
S	 -2.022171000	 0.445434000	 1.779809000
C	 -0.684770000	 -0.757876000	 1.728833000
H	 -3.489854000	 -1.426692000	 1.511493000
H	 -4.097342000	 0.069482000	 0.736340000
H	 -2.798724000	 -0.860590000	 -0.050247000
H	 -0.966694000	 -1.647619000	 2.288311000
H	 -0.479518000	 -0.990635000	 0.685944000
H	 0.182771000	 -0.287975000	 2.183834000
