13
0  1  0  1  0  1   3  10 -7.31515 -6.88851 -6.88475 -7.31139 -6.95878 -7.15929 -4.50180 -4.50892 -4.50100 -6.96490 -10.90891 12.07596 -3.64436 -4.48758
O	 -4.386334339	 2.445851736	 1.255039019
H	 -3.442499339	 2.370505736	 1.043702019
H	 -4.514638339	 3.379916736	 1.425188019
C	 -3.228946000	 -0.562414000	 0.903882000
O	 -1.614569000	 1.539642000	 0.825443000
S	 -2.022171000	 0.445434000	 1.779809000
C	 -0.684770000	 -0.757876000	 1.728833000
H	 -3.489854000	 -1.426692000	 1.511493000
H	 -4.097342000	 0.069482000	 0.736340000
H	 -2.798724000	 -0.860590000	 -0.050247000
H	 -0.966694000	 -1.647619000	 2.288311000
H	 -0.479518000	 -0.990635000	 0.685944000
H	 0.182771000	 -0.287975000	 2.183834000
