13
0  1  0  1  0  1   3  10 -4.72795 -4.28655 -4.24234 -4.68374 -4.32409 -4.53373 -1.80939 -1.81584 -1.81990 -4.18649 -8.52072 11.82026 -3.29331 -4.19271
O	 -4.190398303	 2.343835270	 -0.197970406
H	 -3.259198303	 2.271550270	 0.064340594
H	 -4.332241303	 3.285621270	 -0.301943406
C	 -2.188463000	 -0.234919000	 0.027581000
O	 -1.306536000	 2.221789000	 -0.439100000
S	 -0.990135000	 1.041530000	 0.444711000
C	 0.428465000	 0.238280000	 -0.317889000
H	 -1.949424000	 -1.148293000	 0.568737000
H	 -3.162703000	 0.146242000	 0.322619000
H	 -2.162692000	 -0.390672000	 -1.049191000
H	 0.634093000	 -0.704356000	 0.185394000
H	 0.204774000	 0.087362000	 -1.371981000
H	 1.272517000	 0.913643000	 -0.208701000
