13
0  1  0  1  0  1   3  10 -5.56345 -5.30246 -5.17392 -5.43491 -5.23418 -5.34441 -3.93530 -3.93100 -3.91721 -5.45586 -6.59390  5.57127 -1.62548 -2.80775
O	 -4.366992774	 2.240006176	 -0.414948804
H	 -3.435792774	 2.167721176	 -0.152637804
H	 -4.508835774	 3.181792176	 -0.518921804
C	 -2.532444000	 0.408762000	 1.835234000
O	 -1.808426000	 2.906948000	 1.319612000
S	 -2.005578000	 1.994474000	 2.503996000
C	 -0.352794000	 1.467837000	 2.983739000
H	 -2.599104000	 -0.320731000	 2.639993000
H	 -3.505552000	 0.572500000	 1.379466000
H	 -1.815465000	 0.101425000	 1.076389000
H	 -0.418175000	 0.696155000	 3.748182000
H	 0.157847000	 1.105691000	 2.093785000
H	 0.157762000	 2.342699000	 3.376689000
