13
0  1  0  1  0  1   3  10 -8.07645 -7.47860 -7.48288 -8.08074 -7.57579 -7.86376 -5.06516 -5.07903 -5.06966 -7.47597 -17.76024 23.66302 -7.31428 -6.06447
O	 -3.982069661	 2.269712877	 -0.133489724
H	 -3.050869661	 2.197427877	 0.128821276
H	 -4.123912661	 3.211498877	 -0.237462724
C	 -3.228946000	 -0.562414000	 0.903882000
O	 -1.614569000	 1.539642000	 0.825443000
S	 -2.022171000	 0.445434000	 1.779809000
C	 -0.684770000	 -0.757876000	 1.728833000
H	 -3.489854000	 -1.426692000	 1.511493000
H	 -4.097342000	 0.069482000	 0.736340000
H	 -2.798724000	 -0.860590000	 -0.050247000
H	 -0.966694000	 -1.647619000	 2.288311000
H	 -0.479518000	 -0.990635000	 0.685944000
H	 0.182771000	 -0.287975000	 2.183834000
