13
0  1  0  1  0  1   3  10 -5.58078 -5.38268 -5.33422 -5.53231 -5.38002 -5.46238 -4.20024 -4.19980 -4.18632 -5.55103 -5.80117  3.77357 -1.23092 -2.29250
O	 -4.273384092	 2.555901309	 -0.204495870
H	 -3.342184092	 2.483616309	 0.057815130
H	 -4.415227092	 3.497687309	 -0.308468870
C	 -4.369563000	 -0.887245000	 -0.039089000
O	 -2.058988000	 0.413092000	 -0.002015000
S	 -2.759259000	 -0.696249000	 0.741778000
C	 -2.048563000	 -2.222704000	 0.106137000
H	 -4.885274000	 -1.740999000	 0.396096000
H	 -4.916600000	 0.032887000	 0.149544000
H	 -4.218658000	 -1.015214000	 -1.109235000
H	 -2.599558000	 -3.076792000	 0.494825000
H	 -2.085120000	 -2.185296000	 -0.980687000
H	 -1.016397000	 -2.257159000	 0.443637000
