13
0  1  0  1  0  1   3  10 -0.81142 -0.77608 -0.71720 -0.75253 -0.73168 -0.74182 -0.32315 -0.31651 -0.31198 -0.76509 -0.45252  0.44222 -0.14010 -0.61469
O	 -6.581544847	 0.577251238	 -0.881113007
H	 -5.714956847	 0.986562238	 -0.730594007
H	 -7.149176847	 1.311191238	 -1.119894007
C	 -3.228946000	 -0.562414000	 0.903882000
O	 -1.614569000	 1.539642000	 0.825443000
S	 -2.022171000	 0.445434000	 1.779809000
C	 -0.684770000	 -0.757876000	 1.728833000
H	 -3.489854000	 -1.426692000	 1.511493000
H	 -4.097342000	 0.069482000	 0.736340000
H	 -2.798724000	 -0.860590000	 -0.050247000
H	 -0.966694000	 -1.647619000	 2.288311000
H	 -0.479518000	 -0.990635000	 0.685944000
H	 0.182771000	 -0.287975000	 2.183834000
