13
0  1  0  1  0  1   3  10 -8.21930 -7.85389 -7.78718 -8.15259 -7.85395 -8.02834 -6.57677 -6.58357 -6.58769 -7.85331 -11.12267 10.87382 -3.84137 -3.76309
O	 -3.339850994	 1.984432138	 -1.377477480
H	 -2.635124994	 2.012948138	 -0.711359480
H	 -3.368655994	 2.876155138	 -1.726608480
C	 -3.228946000	 -0.562414000	 0.903882000
O	 -1.614569000	 1.539642000	 0.825443000
S	 -2.022171000	 0.445434000	 1.779809000
C	 -0.684770000	 -0.757876000	 1.728833000
H	 -3.489854000	 -1.426692000	 1.511493000
H	 -4.097342000	 0.069482000	 0.736340000
H	 -2.798724000	 -0.860590000	 -0.050247000
H	 -0.966694000	 -1.647619000	 2.288311000
H	 -0.479518000	 -0.990635000	 0.685944000
H	 0.182771000	 -0.287975000	 2.183834000
