13
0  1  0  1  0  1   3  10 -2.31529 -1.58729 -1.66446 -2.39246 -1.76814 -2.12464  2.07224  2.05961  2.07014 -1.37886 -16.75116 30.10434 -7.85010 -6.88194
O	 -3.882083203	 2.335978227	 -0.277461026
H	 -2.950883203	 2.263693227	 -0.015150026
H	 -4.023926203	 3.277764227	 -0.381434026
C	 -2.188463000	 -0.234919000	 0.027581000
O	 -1.306536000	 2.221789000	 -0.439100000
S	 -0.990135000	 1.041530000	 0.444711000
C	 0.428465000	 0.238280000	 -0.317889000
H	 -1.949424000	 -1.148293000	 0.568737000
H	 -3.162703000	 0.146242000	 0.322619000
H	 -2.162692000	 -0.390672000	 -1.049191000
H	 0.634093000	 -0.704356000	 0.185394000
H	 0.204774000	 0.087362000	 -1.371981000
H	 1.272517000	 0.913643000	 -0.208701000
