13
0  1  0  1  0  1   3  10  4.22395  5.31805  5.08419  3.99009  4.96214  4.40232  8.66129  8.63746  8.64256  4.51872 -34.23913 71.78841 -22.14995 -10.88062
O	 -3.033684196	 1.842440296	 -0.916436736
H	 -2.328958196	 1.870956296	 -0.250318736
H	 -3.062489196	 2.734163296	 -1.265567736
C	 -3.228946000	 -0.562414000	 0.903882000
O	 -1.614569000	 1.539642000	 0.825443000
S	 -2.022171000	 0.445434000	 1.779809000
C	 -0.684770000	 -0.757876000	 1.728833000
H	 -3.489854000	 -1.426692000	 1.511493000
H	 -4.097342000	 0.069482000	 0.736340000
H	 -2.798724000	 -0.860590000	 -0.050247000
H	 -0.966694000	 -1.647619000	 2.288311000
H	 -0.479518000	 -0.990635000	 0.685944000
H	 0.182771000	 -0.287975000	 2.183834000
