13
0  1  0  1  0  1   3  10 -4.72731 -4.35635 -4.29582 -4.66678 -4.37030 -4.54222 -2.19686 -2.20170 -2.20292 -4.30052 -6.92691  8.71116 -2.51023 -3.57454
O	 -4.293170003	 2.346454284	 -0.171473533
H	 -3.361970003	 2.274169284	 0.090837467
H	 -4.435013003	 3.288240284	 -0.275446533
C	 -2.188463000	 -0.234919000	 0.027581000
O	 -1.306536000	 2.221789000	 -0.439100000
S	 -0.990135000	 1.041530000	 0.444711000
C	 0.428465000	 0.238280000	 -0.317889000
H	 -1.949424000	 -1.148293000	 0.568737000
H	 -3.162703000	 0.146242000	 0.322619000
H	 -2.162692000	 -0.390672000	 -1.049191000
H	 0.634093000	 -0.704356000	 0.185394000
H	 0.204774000	 0.087362000	 -1.371981000
H	 1.272517000	 0.913643000	 -0.208701000
