20
0  1  0  1  0  1  10  10 17.89005 19.49179 18.48365 16.88191 18.32776 17.50179 29.82858 29.80591 29.82940 15.76484 -51.47928 107.78285 -20.27988 -20.25885
C	 -3.279724038	 3.542283255	 1.794259240
O	 -3.484075038	 2.153220255	 -0.459304760
S	 -2.992219038	 3.494656255	 0.016023240
C	 -1.198284038	 3.363521255	 0.132190240
H	 -2.874126038	 4.468019255	 2.199141240
H	 -4.357230038	 3.516717255	 1.935126240
H	 -2.805599038	 2.667952255	 2.238089240
H	 -0.796788038	 4.270352255	 0.581220240
H	 -0.965691038	 2.481653255	 0.727548240
H	 -0.825914038	 3.257910255	 -0.883674760
C	 -3.845012000	 -0.032847000	 -0.887519000
O	 -2.960620000	 0.573237000	 1.540334000
S	 -4.257164000	 0.264743000	 0.835930000
C	 -4.625128000	 -1.452457000	 1.246569000
H	 -4.717067000	 -0.426769000	 -1.406418000
H	 -3.563622000	 0.935117000	 -1.294175000
H	 -3.013735000	 -0.735294000	 -0.917900000
H	 -5.489364000	 -1.793019000	 0.679574000
H	 -3.744181000	 -2.052406000	 1.026803000
H	 -4.839632000	 -1.484680000	 2.311333000
