20
0  1  0  1  0  1  10  10 19.77629 21.20318 20.36291 18.93602 20.19695 19.50016 30.25368 30.23312 30.30940 16.23353 -50.72845 109.80430 -24.95363 -17.88869
C	 -3.135545688	 3.848409350	 1.865610117
O	 -3.339896688	 2.459346350	 -0.387953883
S	 -2.848040688	 3.800782350	 0.087374117
C	 -1.054105688	 3.669647350	 0.203541117
H	 -2.729947688	 4.774145350	 2.270492117
H	 -4.213051688	 3.822843350	 2.006477117
H	 -2.661420688	 2.974078350	 2.309440117
H	 -0.652609688	 4.576478350	 0.652571117
H	 -0.821512688	 2.787779350	 0.798899117
H	 -0.681735688	 3.564036350	 -0.812323883
C	 -2.818393000	 -0.062590000	 1.814969000
O	 -2.048728000	 2.100104000	 3.147007000
S	 -3.233185000	 1.172477000	 3.052412000
C	 -3.093030000	 0.074737000	 4.476534000
H	 -3.564814000	 -0.854792000	 1.828473000
H	 -2.832870000	 0.459511000	 0.861709000
H	 -1.826111000	 -0.447749000	 2.043888000
H	 -3.848581000	 -0.706434000	 4.419209000
H	 -2.088610000	 -0.343981000	 4.487356000
H	 -3.250615000	 0.683600000	 5.362662000
