20
0  1  0  1  0  1  10  10  9.32321 10.54880  9.99009  8.76451  9.80240  9.21304 20.12131 20.10150 20.12679  8.51357 -29.67569 62.84695 -9.79770 -14.85999
C	 -4.248467573	 3.018066254	 0.476921014
O	 -3.956010573	 0.858191254	 -1.039393986
S	 -3.928863573	 2.358108254	 -1.169091986
C	 -2.189991573	 2.830682254	 -1.212570986
H	 -4.168458573	 4.103576254	 0.450575014
H	 -5.263247573	 2.727284254	 0.736119014
H	 -3.527127573	 2.578647254	 1.164535014
H	 -2.108601573	 3.916071254	 -1.190735986
H	 -1.697705573	 2.372087254	 -0.356073986
H	 -1.785169573	 2.448347254	 -2.146237986
C	 -2.107812000	 -0.338729000	 -0.096962000
O	 -1.410456000	 1.092431000	 2.026580000
S	 -2.470806000	 0.107213000	 1.605412000
C	 -1.971692000	 -1.467623000	 2.328997000
H	 -2.738713000	 -1.173952000	 -0.395754000
H	 -2.337846000	 0.544109000	 -0.687881000
H	 -1.051820000	 -0.596401000	 -0.159104000
H	 -2.624136000	 -2.262987000	 1.973913000
H	 -0.934246000	 -1.654183000	 2.058435000
H	 -2.060910000	 -1.363510000	 3.406945000
