20
0  1  0  1  0  1  10  10 112.38064 116.05782 113.73615 110.05897 113.45305 111.41276 134.27609 134.23418 134.04908 86.24379 -135.65967 356.62554 -93.73722 -40.98486
C	 -3.164357389	 3.522073178	 2.208377022
O	 -3.368708389	 2.133010178	 -0.045186978
S	 -2.876852389	 3.474446178	 0.430141022
C	 -1.082917389	 3.343311178	 0.546308022
H	 -2.758759389	 4.447809178	 2.613259022
H	 -4.241863389	 3.496507178	 2.349244022
H	 -2.690232389	 2.647742178	 2.652207022
H	 -0.681421389	 4.250142178	 0.995338022
H	 -0.850324389	 2.461443178	 1.141666022
H	 -0.710547389	 3.237700178	 -0.469556978
C	 -2.818393000	 -0.062590000	 1.814969000
O	 -2.048728000	 2.100104000	 3.147007000
S	 -3.233185000	 1.172477000	 3.052412000
C	 -3.093030000	 0.074737000	 4.476534000
H	 -3.564814000	 -0.854792000	 1.828473000
H	 -2.832870000	 0.459511000	 0.861709000
H	 -1.826111000	 -0.447749000	 2.043888000
H	 -3.848581000	 -0.706434000	 4.419209000
H	 -2.088610000	 -0.343981000	 4.487356000
H	 -3.250615000	 0.683600000	 5.362662000
