20
0  1  0  1  0  1  10  10 -9.55829 -9.25315 -9.16158 -9.46672 -9.25355 -9.35593 -6.56434 -6.55606 -6.50660 -10.27292 -10.03406  8.79691 -3.19730 -5.83846
C	 -3.150131262	 4.137335184	 1.682261561
O	 -3.354482262	 2.748272184	 -0.571302439
S	 -2.862626262	 4.089708184	 -0.095974439
C	 -1.068691262	 3.958573184	 0.020192561
H	 -2.744533262	 5.063071184	 2.087143561
H	 -4.227637262	 4.111769184	 1.823128561
H	 -2.676006262	 3.263004184	 2.126091561
H	 -0.667195262	 4.865404184	 0.469222561
H	 -0.836098262	 3.076705184	 0.615550561
H	 -0.696321262	 3.852962184	 -0.995672439
C	 -2.107812000	 -0.338729000	 -0.096962000
O	 -1.410456000	 1.092431000	 2.026580000
S	 -2.470806000	 0.107213000	 1.605412000
C	 -1.971692000	 -1.467623000	 2.328997000
H	 -2.738713000	 -1.173952000	 -0.395754000
H	 -2.337846000	 0.544109000	 -0.687881000
H	 -1.051820000	 -0.596401000	 -0.159104000
H	 -2.624136000	 -2.262987000	 1.973913000
H	 -0.934246000	 -1.654183000	 2.058435000
H	 -2.060910000	 -1.363510000	 3.406945000
