20
0  1  0  1  0  1  10  10 -5.16944 -4.93668 -4.88851 -5.12127 -4.96775 -5.04517 -2.71904 -2.72143 -2.69456 -5.42154 -5.41676  5.32177 -1.51799 -3.80856
C	 -4.641085575	 3.610357779	 -0.103176114
O	 -4.348628575	 1.450482779	 -1.619491114
S	 -4.321481575	 2.950399779	 -1.749189114
C	 -2.582609575	 3.422973779	 -1.792668114
H	 -4.561076575	 4.695867779	 -0.129522114
H	 -5.655865575	 3.319575779	 0.156021886
H	 -3.919745575	 3.170938779	 0.584437886
H	 -2.501219575	 4.508362779	 -1.770833114
H	 -2.090323575	 2.964378779	 -0.936171114
H	 -2.177787575	 3.040638779	 -2.726335114
C	 -2.107812000	 -0.338729000	 -0.096962000
O	 -1.410456000	 1.092431000	 2.026580000
S	 -2.470806000	 0.107213000	 1.605412000
C	 -1.971692000	 -1.467623000	 2.328997000
H	 -2.738713000	 -1.173952000	 -0.395754000
H	 -2.337846000	 0.544109000	 -0.687881000
H	 -1.051820000	 -0.596401000	 -0.159104000
H	 -2.624136000	 -2.262987000	 1.973913000
H	 -0.934246000	 -1.654183000	 2.058435000
H	 -2.060910000	 -1.363510000	 3.406945000
