20
0  1  0  1  0  1  10  10 -5.02694 -4.66882 -4.65427 -5.01239 -4.75628 -4.89344 -1.45214 -1.45912 -1.43326 -5.31329 -7.71707 10.12931 -2.39898 -5.32656
C	 -4.542931074	 3.462284897	 0.041848168
O	 -4.250474074	 1.302409897	 -1.474466832
S	 -4.223327074	 2.802326897	 -1.604164832
C	 -2.484455074	 3.274900897	 -1.647643832
H	 -4.462922074	 4.547794897	 0.015502168
H	 -5.557711074	 3.171502897	 0.301046168
H	 -3.821591074	 3.022865897	 0.729462168
H	 -2.403065074	 4.360289897	 -1.625808832
H	 -1.992169074	 2.816305897	 -0.791146832
H	 -2.079633074	 2.892565897	 -2.581310832
C	 -2.107812000	 -0.338729000	 -0.096962000
O	 -1.410456000	 1.092431000	 2.026580000
S	 -2.470806000	 0.107213000	 1.605412000
C	 -1.971692000	 -1.467623000	 2.328997000
H	 -2.738713000	 -1.173952000	 -0.395754000
H	 -2.337846000	 0.544109000	 -0.687881000
H	 -1.051820000	 -0.596401000	 -0.159104000
H	 -2.624136000	 -2.262987000	 1.973913000
H	 -0.934246000	 -1.654183000	 2.058435000
H	 -2.060910000	 -1.363510000	 3.406945000
