20
0  1  0  1  0  1  10  10 -4.20259 -3.82004 -3.82106 -4.20360 -3.89578 -4.07457 -0.29250 -0.28929 -0.29126 -4.73052 -7.92711 13.20426 -3.54057 -6.46711
C	 -1.822364288	 3.941986704	 3.372224616
O	 -2.182869288	 3.661559704	 0.756655616
S	 -1.366115288	 4.486042704	 1.716057616
C	 0.280361712	 3.752890704	 1.738330616
H	 -1.204626288	 4.460472704	 4.103661616
H	 -2.866210288	 4.211612704	 3.510799616
H	 -1.686142288	 2.862649704	 3.424279616
H	 0.883597712	 4.239476704	 2.502863616
H	 0.168675712	 2.686722704	 1.930825616
H	 0.714497712	 3.928977704	 0.757354616
C	 -2.107812000	 -0.338729000	 -0.096962000
O	 -1.410456000	 1.092431000	 2.026580000
S	 -2.470806000	 0.107213000	 1.605412000
C	 -1.971692000	 -1.467623000	 2.328997000
H	 -2.738713000	 -1.173952000	 -0.395754000
H	 -2.337846000	 0.544109000	 -0.687881000
H	 -1.051820000	 -0.596401000	 -0.159104000
H	 -2.624136000	 -2.262987000	 1.973913000
H	 -0.934246000	 -1.654183000	 2.058435000
H	 -2.060910000	 -1.363510000	 3.406945000
