20
0  1  0  1  0  1  10  10 -4.33044 -4.22483 -4.17659 -4.28220 -4.20821 -4.24604 -2.97730 -2.97416 -2.96244 -4.57356 -2.95730  2.10253 -1.11773 -2.60105
C	 -2.833806759	 4.770888610	 1.635489004
O	 -3.038157759	 3.381825610	 -0.618074996
S	 -2.546301759	 4.723261610	 -0.142746996
C	 -0.752366759	 4.592126610	 -0.026579996
H	 -2.428208759	 5.696624610	 2.040371004
H	 -3.911312759	 4.745322610	 1.776356004
H	 -2.359681759	 3.896557610	 2.079319004
H	 -0.350870759	 5.498957610	 0.422450004
H	 -0.519773759	 3.710258610	 0.568778004
H	 -0.379996759	 4.486515610	 -1.042444996
C	 -3.845012000	 -0.032847000	 -0.887519000
O	 -2.960620000	 0.573237000	 1.540334000
S	 -4.257164000	 0.264743000	 0.835930000
C	 -4.625128000	 -1.452457000	 1.246569000
H	 -4.717067000	 -0.426769000	 -1.406418000
H	 -3.563622000	 0.935117000	 -1.294175000
H	 -3.013735000	 -0.735294000	 -0.917900000
H	 -5.489364000	 -1.793019000	 0.679574000
H	 -3.744181000	 -2.052406000	 1.026803000
H	 -4.839632000	 -1.484680000	 2.311333000
