20
0  1  0  1  0  1  10  10 71.43106 75.46639 72.19364 68.15831 71.89285 69.63326 98.72065 98.66688 98.42851 59.12966 -133.83084 290.66869 -57.77448 -39.93372
C	 -3.715342064	 1.987079217	 3.166855029
O	 -3.951430064	 1.303079217	 0.612209029
S	 -3.837241064	 2.543979217	 1.457453029
C	 -2.123789064	 3.088250217	 1.328050029
H	 -3.558574064	 2.847853217	 3.814865029
H	 -4.662482064	 1.510455217	 3.406171029
H	 -2.891541064	 1.277861217	 3.234653029
H	 -1.954567064	 3.918673217	 2.011374029
H	 -1.484643064	 2.237683217	 1.561010029
H	 -1.976776064	 3.417572217	 0.302512029
C	 -2.107812000	 -0.338729000	 -0.096962000
O	 -1.410456000	 1.092431000	 2.026580000
S	 -2.470806000	 0.107213000	 1.605412000
C	 -1.971692000	 -1.467623000	 2.328997000
H	 -2.738713000	 -1.173952000	 -0.395754000
H	 -2.337846000	 0.544109000	 -0.687881000
H	 -1.051820000	 -0.596401000	 -0.159104000
H	 -2.624136000	 -2.262987000	 1.973913000
H	 -0.934246000	 -1.654183000	 2.058435000
H	 -2.060910000	 -1.363510000	 3.406945000
