20
0  1  0  1  0  1  10  10 -6.79158 -6.57726 -6.54597 -6.76030 -6.61674 -6.68040 -3.85976 -3.85797 -3.81214 -7.43200 -6.67124  6.25263 -2.20578 -4.80762
C	 -4.422251968	 3.177105434	 3.217648935
O	 -4.658339968	 2.493105434	 0.663002935
S	 -4.544150968	 3.734005434	 1.508246935
C	 -2.830698968	 4.278276434	 1.378843935
H	 -4.265483968	 4.037879434	 3.865658935
H	 -5.369391968	 2.700481434	 3.456964935
H	 -3.598450968	 2.467887434	 3.285446935
H	 -2.661476968	 5.108699434	 2.062167935
H	 -2.191552968	 3.427709434	 1.611803935
H	 -2.683685968	 4.607598434	 0.353305935
C	 -2.107812000	 -0.338729000	 -0.096962000
O	 -1.410456000	 1.092431000	 2.026580000
S	 -2.470806000	 0.107213000	 1.605412000
C	 -1.971692000	 -1.467623000	 2.328997000
H	 -2.738713000	 -1.173952000	 -0.395754000
H	 -2.337846000	 0.544109000	 -0.687881000
H	 -1.051820000	 -0.596401000	 -0.159104000
H	 -2.624136000	 -2.262987000	 1.973913000
H	 -0.934246000	 -1.654183000	 2.058435000
H	 -2.060910000	 -1.363510000	 3.406945000
