20
0  1  0  1  0  1  10  10 66.98078 69.71665 67.61902 64.88314 67.33724 65.92449 88.96561 88.93533 88.94962 57.82619 -93.26320 223.08257 -40.15822 -31.83497
C	 -2.725914060	 3.494456864	 2.032535624
O	 -2.930265060	 2.105393864	 -0.221028376
S	 -2.438409060	 3.446829864	 0.254299624
C	 -0.644474060	 3.315694864	 0.370466624
H	 -2.320316060	 4.420192864	 2.437417624
H	 -3.803420060	 3.468890864	 2.173402624
H	 -2.251789060	 2.620125864	 2.476365624
H	 -0.242978060	 4.222525864	 0.819496624
H	 -0.411881060	 2.433826864	 0.965824624
H	 -0.272104060	 3.210083864	 -0.645398376
C	 -0.367944000	 0.320008000	 0.427758000
O	 -0.240567000	 2.326295000	 2.160543000
S	 -0.757549000	 0.912642000	 2.078727000
C	 0.467453000	 -0.092779000	 2.939714000
H	 -0.564655000	 -0.749052000	 0.370106000
H	 -1.025566000	 0.866048000	 -0.243717000
H	 0.679140000	 0.542563000	 0.229111000
H	 0.228811000	 -1.148341000	 2.824780000
H	 1.448634000	 0.139627000	 2.530356000
H	 0.427198000	 0.188025000	 3.988666000
