20
0  1  0  1  0  1  10  10 -6.98169 -6.44900 -6.55750 -7.09019 -6.66812 -6.89564 -1.32902 -1.33416 -1.29508 -7.84894 -13.90728 19.87546 -5.10829 -8.70883
C	 -4.220277710	 2.837097943	 3.203136390
O	 -4.456365710	 2.153097943	 0.648490390
S	 -4.342176710	 3.393997943	 1.493734390
C	 -2.628724710	 3.938268943	 1.364331390
H	 -4.063509710	 3.697871943	 3.851146390
H	 -5.167417710	 2.360473943	 3.442452390
H	 -3.396476710	 2.127879943	 3.270934390
H	 -2.459502710	 4.768691943	 2.047655390
H	 -1.989578710	 3.087701943	 1.597291390
H	 -2.481711710	 4.267590943	 0.338793390
C	 -2.107812000	 -0.338729000	 -0.096962000
O	 -1.410456000	 1.092431000	 2.026580000
S	 -2.470806000	 0.107213000	 1.605412000
C	 -1.971692000	 -1.467623000	 2.328997000
H	 -2.738713000	 -1.173952000	 -0.395754000
H	 -2.337846000	 0.544109000	 -0.687881000
H	 -1.051820000	 -0.596401000	 -0.159104000
H	 -2.624136000	 -2.262987000	 1.973913000
H	 -0.934246000	 -1.654183000	 2.058435000
H	 -2.060910000	 -1.363510000	 3.406945000
