20
0  1  0  1  0  1  10  10 -3.60520 -3.06197 -3.13123 -3.67446 -3.25936 -3.48938  1.57818  1.56557  1.58918 -3.91473 -11.60386 18.99301 -3.82247 -7.48142
C	 -4.444776574	 3.314212016	 0.186872450
O	 -4.152319574	 1.154337016	 -1.329442550
S	 -4.125172574	 2.654254016	 -1.459140550
C	 -2.386300574	 3.126828016	 -1.502619550
H	 -4.364767574	 4.399722016	 0.160526450
H	 -5.459556574	 3.023430016	 0.446070450
H	 -3.723436574	 2.874793016	 0.874486450
H	 -2.304910574	 4.212217016	 -1.480784550
H	 -1.894014574	 2.668233016	 -0.646122550
H	 -1.981478574	 2.744493016	 -2.436286550
C	 -2.107812000	 -0.338729000	 -0.096962000
O	 -1.410456000	 1.092431000	 2.026580000
S	 -2.470806000	 0.107213000	 1.605412000
C	 -1.971692000	 -1.467623000	 2.328997000
H	 -2.738713000	 -1.173952000	 -0.395754000
H	 -2.337846000	 0.544109000	 -0.687881000
H	 -1.051820000	 -0.596401000	 -0.159104000
H	 -2.624136000	 -2.262987000	 1.973913000
H	 -0.934246000	 -1.654183000	 2.058435000
H	 -2.060910000	 -1.363510000	 3.406945000
