20
0  1  0  1  0  1  10  10 -7.28162 -6.75810 -6.74086 -7.26438 -6.84777 -7.07693 -2.42957 -2.43470 -2.40698 -8.03940 -14.31085 20.23873 -5.41967 -8.54760
C	 -3.125508913	 3.970648367	 1.739480026
O	 -3.329859913	 2.581585367	 -0.514083974
S	 -2.838003913	 3.923021367	 -0.038755974
C	 -1.044068913	 3.791886367	 0.077411026
H	 -2.719910913	 4.896384367	 2.144362026
H	 -4.203014913	 3.945082367	 1.880347026
H	 -2.651383913	 3.096317367	 2.183310026
H	 -0.642572913	 4.698717367	 0.526441026
H	 -0.811475913	 2.910018367	 0.672769026
H	 -0.671698913	 3.686275367	 -0.938453974
C	 -1.680816000	 0.411249000	 -1.965616000
O	 -0.838155000	 0.833485000	 0.515431000
S	 -1.821602000	 -0.032238000	 -0.230046000
C	 -1.022897000	 -1.642688000	 -0.376059000
H	 -2.242765000	 -0.299752000	 -2.568609000
H	 -2.109203000	 1.406614000	 -2.050688000
H	 -0.624371000	 0.407732000	 -2.228839000
H	 -1.619813000	 -2.297461000	 -1.007989000
H	 -0.026482000	 -1.493613000	 -0.787443000
H	 -0.952212000	 -2.053483000	 0.627446000
