20
0  1  0  1  0  1  10  10 -5.72588 -5.46442 -5.43939 -5.70085 -5.49766 -5.60761 -2.95786 -2.95896 -2.94114 -6.16179 -6.60720  8.20447 -2.69169 -5.06737
C	 -2.982445852	 4.361353492	 1.688412416
O	 -3.186796852	 2.972290492	 -0.565151584
S	 -2.694940852	 4.313726492	 -0.089823584
C	 -0.901005852	 4.182591492	 0.026343416
H	 -2.576847852	 5.287089492	 2.093294416
H	 -4.059951852	 4.335787492	 1.829279416
H	 -2.508320852	 3.487022492	 2.132242416
H	 -0.499509852	 5.089422492	 0.475373416
H	 -0.668412852	 3.300723492	 0.621701416
H	 -0.528635852	 4.076980492	 -0.989521584
C	 -3.845012000	 -0.032847000	 -0.887519000
O	 -2.960620000	 0.573237000	 1.540334000
S	 -4.257164000	 0.264743000	 0.835930000
C	 -4.625128000	 -1.452457000	 1.246569000
H	 -4.717067000	 -0.426769000	 -1.406418000
H	 -3.563622000	 0.935117000	 -1.294175000
H	 -3.013735000	 -0.735294000	 -0.917900000
H	 -5.489364000	 -1.793019000	 0.679574000
H	 -3.744181000	 -2.052406000	 1.026803000
H	 -4.839632000	 -1.484680000	 2.311333000
