20
0  1  0  1  0  1  10  10 -5.00570 -4.64745 -4.63231 -4.99056 -4.72981 -4.86741 -1.52557 -1.52737 -1.49621 -5.26582 -8.59475 11.53527 -2.79676 -5.40958
C	 -3.407953926	 4.305315117	 1.531012510
O	 -3.612304926	 2.916252117	 -0.722551490
S	 -3.120448926	 4.257688117	 -0.247223490
C	 -1.326513926	 4.126553117	 -0.131056490
H	 -3.002355926	 5.231051117	 1.935894510
H	 -4.485459926	 4.279749117	 1.671879510
H	 -2.933828926	 3.430984117	 1.974842510
H	 -0.925017926	 5.033384117	 0.317973510
H	 -1.093920926	 3.244685117	 0.464301510
H	 -0.954143926	 4.020942117	 -1.146921490
C	 -0.367944000	 0.320008000	 0.427758000
O	 -0.240567000	 2.326295000	 2.160543000
S	 -0.757549000	 0.912642000	 2.078727000
C	 0.467453000	 -0.092779000	 2.939714000
H	 -0.564655000	 -0.749052000	 0.370106000
H	 -1.025566000	 0.866048000	 -0.243717000
H	 0.679140000	 0.542563000	 0.229111000
H	 0.228811000	 -1.148341000	 2.824780000
H	 1.448634000	 0.139627000	 2.530356000
H	 0.427198000	 0.188025000	 3.988666000
