20
0  1  0  1  0  1  10  10 17.07559 19.29668 18.03078 15.80969 17.78738 16.64849 33.45023 33.40018 33.41074 14.19912 -68.50581 134.91341 -25.95502 -26.25346
C	 -3.011503022	 3.210899685	 1.994949428
O	 -3.215854022	 1.821836685	 -0.258614572
S	 -2.723998022	 3.163272685	 0.216713428
C	 -0.930063022	 3.032137685	 0.332880428
H	 -2.605905022	 4.136635685	 2.399831428
H	 -4.089009022	 3.185333685	 2.135816428
H	 -2.537378022	 2.336568685	 2.438779428
H	 -0.528567022	 3.938968685	 0.781910428
H	 -0.697470022	 2.150269685	 0.928238428
H	 -0.557693022	 2.926526685	 -0.682984572
C	 -2.107812000	 -0.338729000	 -0.096962000
O	 -1.410456000	 1.092431000	 2.026580000
S	 -2.470806000	 0.107213000	 1.605412000
C	 -1.971692000	 -1.467623000	 2.328997000
H	 -2.738713000	 -1.173952000	 -0.395754000
H	 -2.337846000	 0.544109000	 -0.687881000
H	 -1.051820000	 -0.596401000	 -0.159104000
H	 -2.624136000	 -2.262987000	 1.973913000
H	 -0.934246000	 -1.654183000	 2.058435000
H	 -2.060910000	 -1.363510000	 3.406945000
