20
0  1  0  1  0  1  10  10 -4.82331 -4.67572 -4.61518 -4.76277 -4.67579 -4.71315 -3.25607 -3.25494 -3.22431 -5.03696 -4.25026  2.97258 -1.03811 -2.72118
C	 -3.680769872	 4.629658418	 1.330403264
O	 -3.885120872	 3.240595418	 -0.923160736
S	 -3.393264872	 4.582031418	 -0.447832736
C	 -1.599329872	 4.450896418	 -0.331665736
H	 -3.275171872	 5.555394418	 1.735285264
H	 -4.758275872	 4.604092418	 1.471270264
H	 -3.206644872	 3.755327418	 1.774233264
H	 -1.197833872	 5.357727418	 0.117364264
H	 -1.366736872	 3.569028418	 0.263692264
H	 -1.226959872	 4.345285418	 -1.347530736
C	 -0.367944000	 0.320008000	 0.427758000
O	 -0.240567000	 2.326295000	 2.160543000
S	 -0.757549000	 0.912642000	 2.078727000
C	 0.467453000	 -0.092779000	 2.939714000
H	 -0.564655000	 -0.749052000	 0.370106000
H	 -1.025566000	 0.866048000	 -0.243717000
H	 0.679140000	 0.542563000	 0.229111000
H	 0.228811000	 -1.148341000	 2.824780000
H	 1.448634000	 0.139627000	 2.530356000
H	 0.427198000	 0.188025000	 3.988666000
