20
0  1  0  1  0  1  10  10 -4.27153 -4.01726 -3.97640 -4.23067 -4.03588 -4.14994 -1.48218 -1.47637 -1.47980 -4.69021 -4.79927  7.08644 -2.32766 -4.64972
C	 -1.781069436	 4.160704787	 3.390981258
O	 -2.141574436	 3.880277787	 0.775412258
S	 -1.324820436	 4.704760787	 1.734814258
C	 0.321656564	 3.971608787	 1.757087258
H	 -1.163331436	 4.679190787	 4.122418258
H	 -2.824915436	 4.430330787	 3.529556258
H	 -1.644847436	 3.081367787	 3.443036258
H	 0.924892564	 4.458194787	 2.521620258
H	 0.209970564	 2.905440787	 1.949582258
H	 0.755792564	 4.147695787	 0.776111258
C	 -2.107812000	 -0.338729000	 -0.096962000
O	 -1.410456000	 1.092431000	 2.026580000
S	 -2.470806000	 0.107213000	 1.605412000
C	 -1.971692000	 -1.467623000	 2.328997000
H	 -2.738713000	 -1.173952000	 -0.395754000
H	 -2.337846000	 0.544109000	 -0.687881000
H	 -1.051820000	 -0.596401000	 -0.159104000
H	 -2.624136000	 -2.262987000	 1.973913000
H	 -0.934246000	 -1.654183000	 2.058435000
H	 -2.060910000	 -1.363510000	 3.406945000
