20
0  1  0  1  0  1  10  10 -7.16735 -6.95868 -6.83746 -7.04613 -6.90380 -6.97092 -5.40384 -5.39801 -5.36206 -7.50768 -6.76979  5.00556 -2.02509 -3.71836
C	 -1.316460053	 4.431123741	 -0.023305929
O	 -1.796068053	 2.512353741	 -1.794774929
S	 -0.879451053	 3.692227741	 -1.607637929
C	 0.701320947	 3.022599741	 -1.058409929
H	 -0.631561053	 5.249488741	 0.192605071
H	 -2.328892053	 4.812710741	 -0.127658929
H	 -1.267004053	 3.654277741	 0.738467071
H	 1.370407947	 3.840609741	 -0.796967929
H	 0.510189947	 2.370294741	 -0.207404929
H	 1.111459947	 2.462571741	 -1.895039929
C	 -2.107812000	 -0.338729000	 -0.096962000
O	 -1.410456000	 1.092431000	 2.026580000
S	 -2.470806000	 0.107213000	 1.605412000
C	 -1.971692000	 -1.467623000	 2.328997000
H	 -2.738713000	 -1.173952000	 -0.395754000
H	 -2.337846000	 0.544109000	 -0.687881000
H	 -1.051820000	 -0.596401000	 -0.159104000
H	 -2.624136000	 -2.262987000	 1.973913000
H	 -0.934246000	 -1.654183000	 2.058435000
H	 -2.060910000	 -1.363510000	 3.406945000
