20
0  1  0  1  0  1  10  10 -5.14982 -4.98334 -4.93605 -5.10254 -4.97976 -5.04472 -3.21655 -3.21508 -3.20082 -5.48614 -4.31923  4.16558 -1.71554 -3.61694
C	 -2.908126305	 4.566121051	 1.661950710
O	 -3.112477305	 3.177058051	 -0.591613290
S	 -2.620621305	 4.518494051	 -0.116285290
C	 -0.826686305	 4.387359051	 -0.000118290
H	 -2.502528305	 5.491857051	 2.066832710
H	 -3.985632305	 4.540555051	 1.802817710
H	 -2.434001305	 3.691790051	 2.105780710
H	 -0.425190305	 5.294190051	 0.448911710
H	 -0.594093305	 3.505491051	 0.595239710
H	 -0.454316305	 4.281748051	 -1.015983290
C	 -3.845012000	 -0.032847000	 -0.887519000
O	 -2.960620000	 0.573237000	 1.540334000
S	 -4.257164000	 0.264743000	 0.835930000
C	 -4.625128000	 -1.452457000	 1.246569000
H	 -4.717067000	 -0.426769000	 -1.406418000
H	 -3.563622000	 0.935117000	 -1.294175000
H	 -3.013735000	 -0.735294000	 -0.917900000
H	 -5.489364000	 -1.793019000	 0.679574000
H	 -3.744181000	 -2.052406000	 1.026803000
H	 -4.839632000	 -1.484680000	 2.311333000
