20
0  1  0  1  0  1  10  10 15.82308 17.75057 16.74260 14.81512 16.54883 15.52033 29.73206 29.69925 29.63715 13.32517 -58.80465 119.14665 -24.29372 -22.72312
C	 -2.935007437	 3.383546447	 1.630093930
O	 -3.139358437	 1.994483447	 -0.623470070
S	 -2.647502437	 3.335919447	 -0.148142070
C	 -0.853567437	 3.204784447	 -0.031975070
H	 -2.529409437	 4.309282447	 2.034975930
H	 -4.012513437	 3.357980447	 1.770960930
H	 -2.460882437	 2.509215447	 2.073923930
H	 -0.452071437	 4.111615447	 0.417054930
H	 -0.620974437	 2.322916447	 0.563382930
H	 -0.481197437	 3.099173447	 -1.047840070
C	 -1.680816000	 0.411249000	 -1.965616000
O	 -0.838155000	 0.833485000	 0.515431000
S	 -1.821602000	 -0.032238000	 -0.230046000
C	 -1.022897000	 -1.642688000	 -0.376059000
H	 -2.242765000	 -0.299752000	 -2.568609000
H	 -2.109203000	 1.406614000	 -2.050688000
H	 -0.624371000	 0.407732000	 -2.228839000
H	 -1.619813000	 -2.297461000	 -1.007989000
H	 -0.026482000	 -1.493613000	 -0.787443000
H	 -0.952212000	 -2.053483000	 0.627446000
