20
0  1  0  1  0  1  10  10 -5.13226 -4.98408 -4.91873 -5.06691 -4.97048 -5.01313 -3.72026 -3.72002 -3.68897 -5.37651 -4.84900  3.34893 -1.19203 -2.68442
C	 -3.063516436	 4.664249780	 1.008692854
O	 -3.267867436	 3.275186780	 -1.244871146
S	 -2.776011436	 4.616622780	 -0.769543146
C	 -0.982076436	 4.485487780	 -0.653376146
H	 -2.657918436	 5.589985780	 1.413574854
H	 -4.141022436	 4.638683780	 1.149559854
H	 -2.589391436	 3.789918780	 1.452522854
H	 -0.580580436	 5.392318780	 -0.204346146
H	 -0.749483436	 3.603619780	 -0.058018146
H	 -0.609706436	 4.379876780	 -1.669241146
C	 -2.818393000	 -0.062590000	 1.814969000
O	 -2.048728000	 2.100104000	 3.147007000
S	 -3.233185000	 1.172477000	 3.052412000
C	 -3.093030000	 0.074737000	 4.476534000
H	 -3.564814000	 -0.854792000	 1.828473000
H	 -2.832870000	 0.459511000	 0.861709000
H	 -1.826111000	 -0.447749000	 2.043888000
H	 -3.848581000	 -0.706434000	 4.419209000
H	 -2.088610000	 -0.343981000	 4.487356000
H	 -3.250615000	 0.683600000	 5.362662000
