20
0  1  0  1  0  1  10  10 11.89599 13.13265 12.50120 11.26455 12.31864 11.73464 22.58079 22.56152 22.62173 10.52724 -35.33879 75.71961 -14.12975 -15.72382
C	 -2.998730006	 3.818800166	 1.831926379
O	 -3.203081006	 2.429737166	 -0.421637621
S	 -2.711225006	 3.771173166	 0.053690379
C	 -0.917290006	 3.640038166	 0.169857379
H	 -2.593132006	 4.744536166	 2.236808379
H	 -4.076236006	 3.793234166	 1.972793379
H	 -2.524605006	 2.944469166	 2.275756379
H	 -0.515794006	 4.546869166	 0.618887379
H	 -0.684697006	 2.758170166	 0.765215379
H	 -0.544920006	 3.534427166	 -0.846007621
C	 -0.367944000	 0.320008000	 0.427758000
O	 -0.240567000	 2.326295000	 2.160543000
S	 -0.757549000	 0.912642000	 2.078727000
C	 0.467453000	 -0.092779000	 2.939714000
H	 -0.564655000	 -0.749052000	 0.370106000
H	 -1.025566000	 0.866048000	 -0.243717000
H	 0.679140000	 0.542563000	 0.229111000
H	 0.228811000	 -1.148341000	 2.824780000
H	 1.448634000	 0.139627000	 2.530356000
H	 0.427198000	 0.188025000	 3.988666000
