20
0  1  0  1  0  1  10  10 29.48113 31.38283 30.48073 28.57903 30.28145 29.31734 42.59566 42.57308 42.62074 23.97463 -66.60210 153.59236 -39.13633 -23.87930
C	 -1.612059002	 3.584185344	 0.623876124
O	 -2.091667002	 1.665415344	 -1.147592876
S	 -1.175050002	 2.845289344	 -0.960455876
C	 0.405721998	 2.175661344	 -0.411227876
H	 -0.927160002	 4.402550344	 0.839787124
H	 -2.624491002	 3.965772344	 0.519523124
H	 -1.562603002	 2.807339344	 1.385649124
H	 1.074808998	 2.993671344	 -0.149785876
H	 0.214590998	 1.523356344	 0.439777124
H	 0.815860998	 1.615633344	 -1.247857876
C	 -2.107812000	 -0.338729000	 -0.096962000
O	 -1.410456000	 1.092431000	 2.026580000
S	 -2.470806000	 0.107213000	 1.605412000
C	 -1.971692000	 -1.467623000	 2.328997000
H	 -2.738713000	 -1.173952000	 -0.395754000
H	 -2.337846000	 0.544109000	 -0.687881000
H	 -1.051820000	 -0.596401000	 -0.159104000
H	 -2.624136000	 -2.262987000	 1.973913000
H	 -0.934246000	 -1.654183000	 2.058435000
H	 -2.060910000	 -1.363510000	 3.406945000
