20
0  1  0  1  0  1  10  10 99.80818 103.68132 100.36800 96.49486 100.10379 97.96256 125.53855 125.48607 125.35613 85.03194 -153.29610 338.90697 -59.56147 -41.01745
C	 -3.428363131	 3.132748136	 1.847182653
O	 -3.632714131	 1.743685136	 -0.406381347
S	 -3.140858131	 3.085121136	 0.068946653
C	 -1.346923131	 2.953986136	 0.185113653
H	 -3.022765131	 4.058484136	 2.252064653
H	 -4.505869131	 3.107182136	 1.988049653
H	 -2.954238131	 2.258417136	 2.291012653
H	 -0.945427131	 3.860817136	 0.634143653
H	 -1.114330131	 2.072118136	 0.780471653
H	 -0.974553131	 2.848375136	 -0.830751347
C	 -3.845012000	 -0.032847000	 -0.887519000
O	 -2.960620000	 0.573237000	 1.540334000
S	 -4.257164000	 0.264743000	 0.835930000
C	 -4.625128000	 -1.452457000	 1.246569000
H	 -4.717067000	 -0.426769000	 -1.406418000
H	 -3.563622000	 0.935117000	 -1.294175000
H	 -3.013735000	 -0.735294000	 -0.917900000
H	 -5.489364000	 -1.793019000	 0.679574000
H	 -3.744181000	 -2.052406000	 1.026803000
H	 -4.839632000	 -1.484680000	 2.311333000
