20
0  1  0  1  0  1  10  10 96.56332 101.09315 97.46353 92.93370 97.10382 94.64658 127.85160 127.76949 127.65954 83.69867 -161.73854 350.55673 -58.07725 -47.04226
C	 -2.956051726	 2.840325486	 2.120024575
O	 -3.160402726	 1.451262486	 -0.133539425
S	 -2.668546726	 2.792698486	 0.341788575
C	 -0.874611726	 2.661563486	 0.457955575
H	 -2.550453726	 3.766061486	 2.524906575
H	 -4.033557726	 2.814759486	 2.260891575
H	 -2.481926726	 1.965994486	 2.563854575
H	 -0.473115726	 3.568394486	 0.906985575
H	 -0.642018726	 1.779695486	 1.053313575
H	 -0.502241726	 2.555952486	 -0.557909425
C	 -2.107812000	 -0.338729000	 -0.096962000
O	 -1.410456000	 1.092431000	 2.026580000
S	 -2.470806000	 0.107213000	 1.605412000
C	 -1.971692000	 -1.467623000	 2.328997000
H	 -2.738713000	 -1.173952000	 -0.395754000
H	 -2.337846000	 0.544109000	 -0.687881000
H	 -1.051820000	 -0.596401000	 -0.159104000
H	 -2.624136000	 -2.262987000	 1.973913000
H	 -0.934246000	 -1.654183000	 2.058435000
H	 -2.060910000	 -1.363510000	 3.406945000
