20
0  1  0  1  0  1  10  10 186.82869 191.66828 189.42173 184.58214 189.05773 186.35866 215.30322 215.23182 214.96724 145.74069 -162.51955 526.85896 -160.41133 -58.18739
C	 -1.730298582	 3.245409985	 0.882748945
O	 -2.209906582	 1.326639985	 -0.888720055
S	 -1.293289582	 2.506513985	 -0.701583055
C	 0.287482418	 1.836885985	 -0.152355055
H	 -1.045399582	 4.063774985	 1.098659945
H	 -2.742730582	 3.626996985	 0.778395945
H	 -1.680842582	 2.468563985	 1.644521945
H	 0.956569418	 2.654895985	 0.109086945
H	 0.096351418	 1.184580985	 0.698649945
H	 0.697621418	 1.276857985	 -0.988985055
C	 -2.107812000	 -0.338729000	 -0.096962000
O	 -1.410456000	 1.092431000	 2.026580000
S	 -2.470806000	 0.107213000	 1.605412000
C	 -1.971692000	 -1.467623000	 2.328997000
H	 -2.738713000	 -1.173952000	 -0.395754000
H	 -2.337846000	 0.544109000	 -0.687881000
H	 -1.051820000	 -0.596401000	 -0.159104000
H	 -2.624136000	 -2.262987000	 1.973913000
H	 -0.934246000	 -1.654183000	 2.058435000
H	 -2.060910000	 -1.363510000	 3.406945000
