20
0  1  0  1  0  1  10  10 -7.28384 -6.94427 -6.95670 -7.29627 -7.04566 -7.17149 -3.20677 -3.20728 -3.16212 -8.05061 -9.44805 11.18846 -3.32927 -6.46175
C	 -4.321264839	 3.007101689	 3.210392663
O	 -4.557352839	 2.323101689	 0.655746663
S	 -4.443163839	 3.564001689	 1.500990663
C	 -2.729711839	 4.108272689	 1.371587663
H	 -4.164496839	 3.867875689	 3.858402663
H	 -5.268404839	 2.530477689	 3.449708663
H	 -3.497463839	 2.297883689	 3.278190663
H	 -2.560489839	 4.938695689	 2.054911663
H	 -2.090565839	 3.257705689	 1.604547663
H	 -2.582698839	 4.437594689	 0.346049663
C	 -2.107812000	 -0.338729000	 -0.096962000
O	 -1.410456000	 1.092431000	 2.026580000
S	 -2.470806000	 0.107213000	 1.605412000
C	 -1.971692000	 -1.467623000	 2.328997000
H	 -2.738713000	 -1.173952000	 -0.395754000
H	 -2.337846000	 0.544109000	 -0.687881000
H	 -1.051820000	 -0.596401000	 -0.159104000
H	 -2.624136000	 -2.262987000	 1.973913000
H	 -0.934246000	 -1.654183000	 2.058435000
H	 -2.060910000	 -1.363510000	 3.406945000
