20
0  1  0  1  0  1  10  10 -5.88139 -5.75673 -5.65906 -5.78372 -5.70923 -5.73770 -4.22156 -4.21834 -4.18375 -6.29948 -4.65820  3.14132 -1.46593 -3.31667
C	 -3.316010390	 4.557750288	 1.848866121
O	 -3.520361390	 3.168687288	 -0.404697879
S	 -3.028505390	 4.510123288	 0.070630121
C	 -1.234570390	 4.378988288	 0.186797121
H	 -2.910412390	 5.483486288	 2.253748121
H	 -4.393516390	 4.532184288	 1.989733121
H	 -2.841885390	 3.683419288	 2.292696121
H	 -0.833074390	 5.285819288	 0.635827121
H	 -1.001977390	 3.497120288	 0.782155121
H	 -0.862200390	 4.273377288	 -0.829067879
C	 -1.680816000	 0.411249000	 -1.965616000
O	 -0.838155000	 0.833485000	 0.515431000
S	 -1.821602000	 -0.032238000	 -0.230046000
C	 -1.022897000	 -1.642688000	 -0.376059000
H	 -2.242765000	 -0.299752000	 -2.568609000
H	 -2.109203000	 1.406614000	 -2.050688000
H	 -0.624371000	 0.407732000	 -2.228839000
H	 -1.619813000	 -2.297461000	 -1.007989000
H	 -0.026482000	 -1.493613000	 -0.787443000
H	 -0.952212000	 -2.053483000	 0.627446000
