20
0  1  0  1  0  1  10  10 -7.78766 -7.45821 -7.33946 -7.66891 -7.42371 -7.55124 -5.10786 -5.10158 -5.06786 -8.19946 -9.64253 10.06408 -3.36614 -5.25486
C	 -1.375579843	 4.261736061	 0.106130482
O	 -1.855187843	 2.342966061	 -1.665338518
S	 -0.938570843	 3.522840061	 -1.478201518
C	 0.642201157	 2.853212061	 -0.928973518
H	 -0.690680843	 5.080101061	 0.322041482
H	 -2.388011843	 4.643323061	 0.001777482
H	 -1.326123843	 3.484890061	 0.867903482
H	 1.311288157	 3.671222061	 -0.667531518
H	 0.451070157	 2.200907061	 -0.077968518
H	 1.052340157	 2.293184061	 -1.765603518
C	 -2.107812000	 -0.338729000	 -0.096962000
O	 -1.410456000	 1.092431000	 2.026580000
S	 -2.470806000	 0.107213000	 1.605412000
C	 -1.971692000	 -1.467623000	 2.328997000
H	 -2.738713000	 -1.173952000	 -0.395754000
H	 -2.337846000	 0.544109000	 -0.687881000
H	 -1.051820000	 -0.596401000	 -0.159104000
H	 -2.624136000	 -2.262987000	 1.973913000
H	 -0.934246000	 -1.654183000	 2.058435000
H	 -2.060910000	 -1.363510000	 3.406945000
