20
0  1  0  1  0  1  10  10 -5.23166 -5.00159 -4.94865 -5.17872 -5.02645 -5.10106 -2.88262 -2.88187 -2.85006 -5.48270 -5.86722  5.89439 -1.68430 -3.82557
C	 -3.544361899	 4.467486768	 1.430707887
O	 -3.748712899	 3.078423768	 -0.822856113
S	 -3.256856899	 4.419859768	 -0.347528113
C	 -1.462921899	 4.288724768	 -0.231361113
H	 -3.138763899	 5.393222768	 1.835589887
H	 -4.621867899	 4.441920768	 1.571574887
H	 -3.070236899	 3.593155768	 1.874537887
H	 -1.061425899	 5.195555768	 0.217668887
H	 -1.230328899	 3.406856768	 0.363996887
H	 -1.090551899	 4.183113768	 -1.247226113
C	 -0.367944000	 0.320008000	 0.427758000
O	 -0.240567000	 2.326295000	 2.160543000
S	 -0.757549000	 0.912642000	 2.078727000
C	 0.467453000	 -0.092779000	 2.939714000
H	 -0.564655000	 -0.749052000	 0.370106000
H	 -1.025566000	 0.866048000	 -0.243717000
H	 0.679140000	 0.542563000	 0.229111000
H	 0.228811000	 -1.148341000	 2.824780000
H	 1.448634000	 0.139627000	 2.530356000
H	 0.427198000	 0.188025000	 3.988666000
