20
0  1  0  1  0  1  10  10 -4.16143 -4.06495 -4.01322 -4.10970 -4.06030 -4.07826 -3.04068 -3.04160 -3.01647 -4.31859 -3.13052  1.42409 -0.63056 -1.98160
C	 -4.837394576	 3.906503541	 -0.393224677
O	 -4.544937576	 1.746628541	 -1.909539677
S	 -4.517790576	 3.246545541	 -2.039237677
C	 -2.778918576	 3.719119541	 -2.082716677
H	 -4.757385576	 4.992013541	 -0.419570677
H	 -5.852174576	 3.615721541	 -0.134026677
H	 -4.116054576	 3.467084541	 0.294389323
H	 -2.697528576	 4.804508541	 -2.060881677
H	 -2.286632576	 3.260524541	 -1.226219677
H	 -2.374096576	 3.336784541	 -3.016383677
C	 -2.107812000	 -0.338729000	 -0.096962000
O	 -1.410456000	 1.092431000	 2.026580000
S	 -2.470806000	 0.107213000	 1.605412000
C	 -1.971692000	 -1.467623000	 2.328997000
H	 -2.738713000	 -1.173952000	 -0.395754000
H	 -2.337846000	 0.544109000	 -0.687881000
H	 -1.051820000	 -0.596401000	 -0.159104000
H	 -2.624136000	 -2.262987000	 1.973913000
H	 -0.934246000	 -1.654183000	 2.058435000
H	 -2.060910000	 -1.363510000	 3.406945000
