20
0  1  0  1  0  1  10  10 -5.48199 -5.07210 -5.11380 -5.52370 -5.18882 -5.37318 -1.51157 -1.51583 -1.49392 -6.00540 -10.56003 16.00669 -4.31502 -7.13704
C	 -3.056765398	 4.156585932	 1.714874122
O	 -3.261116398	 2.767522932	 -0.538689878
S	 -2.769260398	 4.108958932	 -0.063361878
C	 -0.975325398	 3.977823932	 0.052805122
H	 -2.651167398	 5.082321932	 2.119756122
H	 -4.134271398	 4.131019932	 1.855741122
H	 -2.582640398	 3.282254932	 2.158704122
H	 -0.573829398	 4.884654932	 0.501835122
H	 -0.742732398	 3.095955932	 0.648163122
H	 -0.602955398	 3.872212932	 -0.963059878
C	 -3.845012000	 -0.032847000	 -0.887519000
O	 -2.960620000	 0.573237000	 1.540334000
S	 -4.257164000	 0.264743000	 0.835930000
C	 -4.625128000	 -1.452457000	 1.246569000
H	 -4.717067000	 -0.426769000	 -1.406418000
H	 -3.563622000	 0.935117000	 -1.294175000
H	 -3.013735000	 -0.735294000	 -0.917900000
H	 -5.489364000	 -1.793019000	 0.679574000
H	 -3.744181000	 -2.052406000	 1.026803000
H	 -4.839632000	 -1.484680000	 2.311333000
