20
0  1  0  1  0  1  10  10 10.24756 11.52509 10.84723  9.56970 10.70192 10.05459 20.99545 20.97599 20.99314  8.86711 -37.72837 76.38708 -12.50610 -17.28550
C	 -1.946248844	 3.285832455	 3.315954691
O	 -2.306753844	 3.005405455	 0.700385691
S	 -1.489999844	 3.829888455	 1.659787691
C	 0.156477156	 3.096736455	 1.682060691
H	 -1.328510844	 3.804318455	 4.047391691
H	 -2.990094844	 3.555458455	 3.454529691
H	 -1.810026844	 2.206495455	 3.368009691
H	 0.759713156	 3.583322455	 2.446593691
H	 0.044791156	 2.030568455	 1.874555691
H	 0.590613156	 3.272823455	 0.701084691
C	 -2.107812000	 -0.338729000	 -0.096962000
O	 -1.410456000	 1.092431000	 2.026580000
S	 -2.470806000	 0.107213000	 1.605412000
C	 -1.971692000	 -1.467623000	 2.328997000
H	 -2.738713000	 -1.173952000	 -0.395754000
H	 -2.337846000	 0.544109000	 -0.687881000
H	 -1.051820000	 -0.596401000	 -0.159104000
H	 -2.624136000	 -2.262987000	 1.973913000
H	 -0.934246000	 -1.654183000	 2.058435000
H	 -2.060910000	 -1.363510000	 3.406945000
