20
0  1  0  1  0  1  10  10 -9.63028 -8.92144 -8.97548 -9.68432 -9.11522 -9.42809 -3.61352 -3.61856 -3.58030 -10.59151 -19.98841 27.30751 -7.28277 -10.62783
C	 -3.094679966	 3.766760984	 1.807336708
O	 -3.299030966	 2.377697984	 -0.446227292
S	 -2.807174966	 3.719133984	 0.029100708
C	 -1.013239966	 3.587998984	 0.145267708
H	 -2.689081966	 4.692496984	 2.212218708
H	 -4.172185966	 3.741194984	 1.948203708
H	 -2.620554966	 2.892429984	 2.251166708
H	 -0.611743966	 4.494829984	 0.594297708
H	 -0.780646966	 2.706130984	 0.740625708
H	 -0.640869966	 3.482387984	 -0.870597292
C	 -2.107812000	 -0.338729000	 -0.096962000
O	 -1.410456000	 1.092431000	 2.026580000
S	 -2.470806000	 0.107213000	 1.605412000
C	 -1.971692000	 -1.467623000	 2.328997000
H	 -2.738713000	 -1.173952000	 -0.395754000
H	 -2.337846000	 0.544109000	 -0.687881000
H	 -1.051820000	 -0.596401000	 -0.159104000
H	 -2.624136000	 -2.262987000	 1.973913000
H	 -0.934246000	 -1.654183000	 2.058435000
H	 -2.060910000	 -1.363510000	 3.406945000
