20
0  1  0  1  0  1  10  10 -10.18768 -9.71944 -9.66904 -10.13728 -9.78352 -9.96830 -5.92909 -5.92558 -5.87879 -11.03179 -13.92923 15.56592 -4.80324 -7.86525
C	 -3.122405614	 3.952048084	 1.744799134
O	 -3.326756614	 2.562985084	 -0.508764866
S	 -2.834900614	 3.904421084	 -0.033436866
C	 -1.040965614	 3.773286084	 0.082730134
H	 -2.716807614	 4.877784084	 2.149681134
H	 -4.199911614	 3.926482084	 1.885666134
H	 -2.648280614	 3.077717084	 2.188629134
H	 -0.639469614	 4.680117084	 0.531760134
H	 -0.808372614	 2.891418084	 0.678088134
H	 -0.668595614	 3.667675084	 -0.933134866
C	 -2.107812000	 -0.338729000	 -0.096962000
O	 -1.410456000	 1.092431000	 2.026580000
S	 -2.470806000	 0.107213000	 1.605412000
C	 -1.971692000	 -1.467623000	 2.328997000
H	 -2.738713000	 -1.173952000	 -0.395754000
H	 -2.337846000	 0.544109000	 -0.687881000
H	 -1.051820000	 -0.596401000	 -0.159104000
H	 -2.624136000	 -2.262987000	 1.973913000
H	 -0.934246000	 -1.654183000	 2.058435000
H	 -2.060910000	 -1.363510000	 3.406945000
