20
0  1  0  1  0  1  10  10 -6.17992 -6.04687 -5.94247 -6.07552 -5.99394 -6.02628 -5.03358 -5.02972 -4.99458 -6.44359 -5.01454  2.49045 -1.26219 -2.65731
C	 -1.257340263	 4.600511420	 -0.152742339
O	 -1.736948263	 2.681741420	 -1.924211339
S	 -0.820331263	 3.861615420	 -1.737074339
C	 0.760440737	 3.191987420	 -1.187846339
H	 -0.572441263	 5.418876420	 0.063168661
H	 -2.269772263	 4.982098420	 -0.257095339
H	 -1.207884263	 3.823665420	 0.609030661
H	 1.429527737	 4.009997420	 -0.926404339
H	 0.569309737	 2.539682420	 -0.336841339
H	 1.170579737	 2.631959420	 -2.024476339
C	 -2.107812000	 -0.338729000	 -0.096962000
O	 -1.410456000	 1.092431000	 2.026580000
S	 -2.470806000	 0.107213000	 1.605412000
C	 -1.971692000	 -1.467623000	 2.328997000
H	 -2.738713000	 -1.173952000	 -0.395754000
H	 -2.337846000	 0.544109000	 -0.687881000
H	 -1.051820000	 -0.596401000	 -0.159104000
H	 -2.624136000	 -2.262987000	 1.973913000
H	 -0.934246000	 -1.654183000	 2.058435000
H	 -2.060910000	 -1.363510000	 3.406945000
