9
-2  1 -2  1  0  1   6   3 -34.45180 -33.30344 -33.13734 -34.28570 -33.23928 -33.88379 -30.12915 -30.14177 -30.23558 -34.01036 -49.36167 43.70158 -18.72092 -9.62934
P	 -2.534945339	 -0.152691404	 0.023933000
O	 -1.692885339	 -0.101231404	 -1.276947000
O	 -3.256225339	 1.426768596	 -0.044457000
O	 -1.669385339	 -0.140251404	 1.293633000
O	 -3.710845339	 -1.117811404	 0.034473000
H	 -2.765275339	 1.738898596	 -0.810167000
O	 0.684880000	 0.052190000	 -0.001170000
H	 0.000000000	 0.000000000	 -0.706000000
H	 -0.000000000	 0.000000000	 0.705960000
