9
-2  1 -2  1  0  1   6   3 -29.18680 -27.94115 -27.77891 -29.02450 -27.87887 -28.58266 -24.07759 -24.08071 -24.17898 -28.86743 -50.85899 52.00915 -19.38535 -10.63223
P	 -2.246582133	 1.123063881	 0.023794629
O	 -1.491612133	 0.746593881	 -1.277085371
O	 -2.081502133	 2.851553881	 -0.044595371
O	 -1.490772133	 0.701053881	 1.293494629
O	 -3.747502133	 0.875193881	 0.034334629
H	 -1.500262133	 2.876393881	 -0.810305371
O	 0.684880000	 0.052190000	 -0.001170000
H	 0.000000000	 0.000000000	 -0.706000000
H	 -0.000000000	 0.000000000	 0.705960000
