9
-2  1 -2  1  0  1   6   3 -4.90940 -2.74179 -3.07978 -5.24738 -3.21325 -4.44959  3.70581  3.69972  3.55665 -7.69275 -80.92976 137.85183 -46.08286 -18.53195
P	 -1.939507676	 -0.130546555	 -1.093913631
O	 -0.559817676	 -0.079086555	 -1.799473631
O	 -2.529957676	 1.448913445	 -1.513773631
O	 -1.824757676	 -0.118106555	 0.438466369
O	 -2.963137676	 -1.095666555	 -1.672733631
H	 -1.721927676	 1.761043445	 -1.931423631
O	 0.684880000	 0.052190000	 -0.001170000
H	 0.000000000	 0.000000000	 -0.706000000
H	 -0.000000000	 0.000000000	 0.705960000
