9
-2  1 -2  1  0  1   6   3 -22.21980 -20.65620 -20.72114 -22.28470 -20.84683 -21.71612 -15.85754 -15.86949 -15.95955 -22.71722 -60.49468 82.27754 -31.10920 -13.39089
P	 -2.086457607	 -0.144631777	 1.231602040
O	 -2.007647607	 -0.093171777	 -0.316017960
O	 -2.745297607	 1.434828223	 1.533022040
O	 -0.702007607	 -0.132191777	 1.898422040
O	 -3.099547607	 -1.109751777	 1.828682040
H	 -2.702977607	 1.746958223	 0.624422040
O	 0.684880000	 0.052190000	 -0.001170000
H	 0.000000000	 0.000000000	 -0.706000000
H	 -0.000000000	 0.000000000	 0.705960000
