9
-2  1 -2  1  0  1   6   3 -23.57840 -21.91065 -21.95091 -23.61870 -22.06463 -23.00398 -16.68758 -16.69409 -16.79109 -23.54359 -67.93835 86.89000 -28.04222 -14.45302
P	 -2.080894118	 1.042639006	 0.022880781
O	 -1.325924118	 0.666169006	 -1.277999219
O	 -1.915814118	 2.771129006	 -0.045509219
O	 -1.325084118	 0.620629006	 1.292580781
O	 -3.581814118	 0.794769006	 0.033420781
H	 -1.334574118	 2.795969006	 -0.811219219
O	 0.684880000	 0.052190000	 -0.001170000
H	 0.000000000	 0.000000000	 -0.706000000
H	 -0.000000000	 0.000000000	 0.705960000
