9
-2  1 -2  1  0  1   6   3 -29.36810 -28.24038 -28.14316 -29.27090 -28.25808 -28.86858 -24.76382 -24.77956 -24.83876 -29.31528 -46.07120 47.48882 -21.12293 -9.60998
P	 -2.255811058	 -0.158716999	 1.330504795
O	 -2.177001058	 -0.107256999	 -0.217115205
O	 -2.914651058	 1.420743001	 1.631924795
O	 -0.871361058	 -0.146276999	 1.997324795
O	 -3.268901058	 -1.123836999	 1.927584795
H	 -2.872331058	 1.732873001	 0.723324795
O	 0.684880000	 0.052190000	 -0.001170000
H	 0.000000000	 0.000000000	 -0.706000000
H	 -0.000000000	 0.000000000	 0.705960000
