9
-2  1 -2  1  0  1   6   3 -9.17473 -6.91266 -7.30747 -9.56954 -7.44173 -8.72158  0.11510  0.10443 -0.01340 -10.69626 -91.96124 142.93589 -42.21801 -19.45289
P	 -1.789869972	 -1.176813904	 0.021960762
O	 -1.086359972	 -0.711223904	 -1.278919238
O	 -3.204249972	 -0.169603904	 -0.046429238
O	 -1.046499972	 -0.733263904	 1.291660762
O	 -2.325669972	 -2.600583904	 0.032500762
H	 -2.935139972	 0.346186096	 -0.812139238
O	 0.684880000	 0.052190000	 -0.001170000
H	 0.000000000	 0.000000000	 -0.706000000
H	 -0.000000000	 0.000000000	 0.705960000
