9
-2  1 -2  1  0  1   6   3 -26.51100 -24.75716 -24.83351 -26.58740 -24.95461 -25.93585 -19.49727 -19.51529 -19.60368 -26.54386 -72.38405 91.86708 -30.71727 -15.30961
P	 -0.590098442	 0.146897503	 1.294738824
O	 0.263821558	 0.178667503	 0.000978824
O	 -1.310608442	 1.725087503	 1.195788824
O	 0.263821558	 0.178667503	 2.571968824
O	 -1.766108442	 -0.818032497	 1.309178824
H	 -0.812658442	 2.025597503	 0.429958824
O	 2.023800000	 1.374240000	 1.295220000
H	 1.467750000	 0.980540000	 0.585030000
H	 1.445860000	 0.992640000	 1.996770000
