9
-2  1 -2  1  0  1   6   3 -22.73160 -21.18550 -21.23996 -22.78610 -21.35826 -22.22258 -16.42651 -16.43498 -16.52707 -23.18221 -60.32373 80.71045 -30.27385 -13.29507
P	 -2.109834486	 -0.144631777	 -1.191125578
O	 -0.730144486	 -0.093171777	 -1.896685578
O	 -2.700284486	 1.434828223	 -1.610985578
O	 -1.995084486	 -0.132191777	 0.341254422
O	 -3.133464486	 -1.109751777	 -1.769945578
H	 -1.892254486	 1.746958223	 -2.028635578
O	 0.684880000	 0.052190000	 -0.001170000
H	 0.000000000	 0.000000000	 -0.706000000
H	 -0.000000000	 0.000000000	 0.705960000
