9
-2  1 -2  1  0  1   6   3 -32.38210 -31.08578 -30.96785 -32.26420 -31.08067 -31.80501 -27.35052 -27.36845 -27.46350 -31.87448 -53.79443 53.69908 -20.88425 -10.89487
P	 -0.729001075	 -0.092408535	 1.294186573
O	 0.124918925	 -0.060638535	 0.000426573
O	 -1.449511075	 1.485781465	 1.195236573
O	 0.124918925	 -0.060638535	 2.571416573
O	 -1.905011075	 -1.057338535	 1.308626573
H	 -0.951561075	 1.786291465	 0.429406573
O	 2.202030000	 -1.065540000	 1.295220000
H	 1.583050000	 -0.780840000	 0.585030000
H	 1.582580000	 -0.755830000	 1.996770000
