9
-2  1 -2  1  0  1   6   3 -30.49070 -29.78738 -29.60175 -30.30500 -29.69101 -30.06631 -27.79038 -27.80336 -27.85150 -30.53261 -32.50217 20.16513 -12.37192 -5.82366
P	 -2.535651513	 -0.179844832	 -1.434155446
O	 -1.155961513	 -0.128384832	 -2.139715446
O	 -3.126101513	 1.399615168	 -1.854015446
O	 -2.420901513	 -0.167404832	 0.098224554
O	 -3.559281513	 -1.144964832	 -2.012975446
H	 -2.318071513	 1.711745168	 -2.271665446
O	 0.684880000	 0.052190000	 -0.001170000
H	 0.000000000	 0.000000000	 -0.706000000
H	 -0.000000000	 0.000000000	 0.705960000
