9
-2  1 -2  1  0  1   6   3 -29.03700 -28.34572 -28.08205 -28.77330 -28.16239 -28.54124 -26.42832 -26.43187 -26.49268 -29.05113 -31.24109 18.31186 -10.38902 -5.73288
P	 -2.577958163	 1.283913633	 0.025622324
O	 -1.822988163	 0.907443633	 -1.275257676
O	 -2.412878163	 3.012403633	 -0.042767676
O	 -1.822148163	 0.861903633	 1.295322324
O	 -4.078878163	 1.036043633	 0.036162324
H	 -1.831638163	 3.037243633	 -0.808477676
O	 0.684880000	 0.052190000	 -0.001170000
H	 0.000000000	 0.000000000	 -0.706000000
H	 -0.000000000	 0.000000000	 0.705960000
