9
-2  1 -2  1  0  1   6   3 -33.36300 -32.23417 -32.05896 -33.18770 -32.16549 -32.79664 -29.03775 -29.05415 -29.14935 -32.90733 -47.53830 41.60933 -17.61736 -9.36100
P	 -0.809995301	 -0.053092065	 1.293909994
O	 0.043924699	 -0.021322065	 0.000149994
O	 -1.530505301	 1.525097935	 1.194959994
O	 0.043924699	 -0.021322065	 2.571139994
O	 -1.986005301	 -1.018022065	 1.308349994
H	 -1.032555301	 1.825607935	 0.429129994
O	 2.202030000	 -1.065540000	 1.295220000
H	 1.583050000	 -0.780840000	 0.585030000
H	 1.582580000	 -0.755830000	 1.996770000
