9
-2  1 -2  1  0  1   6   3 -30.03820 -28.96624 -28.74891 -29.82090 -28.84783 -29.44867 -25.53246 -25.53798 -25.62879 -29.72336 -44.24959 39.94224 -16.36038 -9.05563
P	 -2.170737819	 -1.434758156	 0.024243176
O	 -1.467227819	 -0.969168156	 -1.276636824
O	 -3.585117819	 -0.427548156	 -0.044146824
O	 -1.427367819	 -0.991208156	 1.293943176
O	 -2.706537819	 -2.858528156	 0.034783176
H	 -3.316007819	 0.088241844	 -0.809856824
O	 0.684880000	 0.052190000	 -0.001170000
H	 0.000000000	 0.000000000	 -0.706000000
H	 -0.000000000	 0.000000000	 0.705960000
