9
-2  1 -2  1  0  1   6   3 -27.44320 -26.93188 -26.75003 -27.26130 -26.80269 -27.07715 -26.10771 -26.11230 -26.13435 -27.45836 -28.56235 14.56525 -9.26305 -4.19821
P	 -1.517305879	 -0.086677256	 0.388547702
O	 -0.663385879	 -0.054907256	 -0.905212298
O	 -2.237815879	 1.491512744	 0.289597702
O	 -0.663385879	 -0.054907256	 1.665777702
O	 -2.693315879	 -1.051607256	 0.402987702
H	 -1.739865879	 1.792022744	 -0.476232298
O	 2.117780000	 0.178230000	 -1.211480000
H	 1.175160000	 0.115300000	 -1.487310000
H	 1.869850000	 0.136730000	 -0.258260000
