9
-2  1 -2  1  0  1   6   3 -33.36070 -32.60804 -32.37451 -33.12720 -32.45744 -32.87332 -30.72548 -30.73411 -30.80208 -33.25158 -35.70583 20.45116 -11.84772 -6.14919
P	 -2.800387760	 -0.171755837	 0.025253473
O	 -1.958327760	 -0.120295837	 -1.275626527
O	 -3.521667760	 1.407704163	 -0.043136527
O	 -1.934827760	 -0.159315837	 1.294953473
O	 -3.976287760	 -1.136875837	 0.035793473
H	 -3.030717760	 1.719834163	 -0.808846527
O	 0.684880000	 0.052190000	 -0.001170000
H	 0.000000000	 0.000000000	 -0.706000000
H	 -0.000000000	 0.000000000	 0.705960000
