9
-2  1 -2  1  0  1   6   3 -28.58280 -27.71715 -27.56340 -28.42900 -27.63063 -28.10656 -25.83251 -25.83086 -25.86488 -28.53831 -42.92333 39.37761 -17.37061 -7.62197
P	 -1.219229850	 -0.062006039	 0.217674833
O	 -0.365309850	 -0.030236039	 -1.076085167
O	 -1.939739850	 1.516183961	 0.118724833
O	 -0.365309850	 -0.030236039	 1.494904833
O	 -2.395239850	 -1.026936039	 0.232114833
H	 -1.441789850	 1.816693961	 -0.647105167
O	 2.117780000	 0.178230000	 -1.211480000
H	 1.175160000	 0.115300000	 -1.487310000
H	 1.869850000	 0.136730000	 -0.258260000
