9
-2  1 -2  1  0  1   6   3 -33.46090 -32.14427 -32.04127 -33.35790 -32.15037 -32.88748 -28.43805 -28.45273 -28.54517 -32.97720 -55.79389 56.17086 -22.17311 -11.18107
P	 -2.446464531	 -0.146336594	 0.023492842
O	 -1.604404531	 -0.094876594	 -1.277387158
O	 -3.167744531	 1.433123406	 -0.044897158
O	 -1.580904531	 -0.133896594	 1.293192842
O	 -3.622364531	 -1.111456594	 0.034032842
H	 -2.676794531	 1.745253406	 -0.810607158
O	 0.684880000	 0.052190000	 -0.001170000
H	 0.000000000	 0.000000000	 -0.706000000
H	 -0.000000000	 0.000000000	 0.705960000
