9
-2  1 -2  1  0  1   6   3 -29.08910 -28.36043 -28.18151 -28.91020 -28.24339 -28.64152 -26.96965 -26.97030 -27.00029 -28.95115 -36.93288 28.29338 -14.11053 -6.20113
P	 -1.323903958	 -0.070808187	 -0.265019700
O	 -0.469983958	 -0.039038187	 -1.558779700
O	 -2.044413958	 1.507381813	 -0.363969700
O	 -0.469983958	 -0.039038187	 1.012210300
O	 -2.499913958	 -1.035738187	 -0.250579700
H	 -1.546463958	 1.807891813	 -1.129799700
O	 2.108060000	 0.178230000	 1.228310000
H	 1.875630000	 0.115300000	 0.274070000
H	 1.158580000	 0.136730000	 1.490210000
