9
-2  1 -2  1  0  1   6   3 -30.57770 -29.61348 -29.47131 -30.43550 -29.58096 -30.09725 -26.68376 -26.70079 -26.75356 -30.50665 -40.66941 35.96161 -17.65269 -8.14616
P	 -2.340487783	 -0.165759610	 1.379956173
O	 -2.261677783	 -0.114299610	 -0.167663827
O	 -2.999327783	 1.413700390	 1.681376173
O	 -0.956037783	 -0.153319610	 2.046776173
O	 -3.353577783	 -1.130879610	 1.977036173
H	 -2.957007783	 1.725830390	 0.772776173
O	 0.684880000	 0.052190000	 -0.001170000
H	 0.000000000	 0.000000000	 -0.706000000
H	 -0.000000000	 0.000000000	 0.705960000
