9
-2  1 -2  1  0  1   6   3 -30.83150 -30.00380 -29.83562 -30.66330 -29.93938 -30.37879 -27.55471 -27.57225 -27.62175 -30.79614 -36.20068 27.20056 -14.88888 -6.90714
P	 -2.425164509	 -0.172802221	 1.429407550
O	 -2.346354509	 -0.121342221	 -0.118212450
O	 -3.084004509	 1.406657779	 1.730827550
O	 -1.040714509	 -0.160362221	 2.096227550
O	 -3.438254509	 -1.137922221	 2.026487550
H	 -3.041684509	 1.718787779	 0.822227550
O	 0.684880000	 0.052190000	 -0.001170000
H	 0.000000000	 0.000000000	 -0.706000000
H	 -0.000000000	 0.000000000	 0.705960000
