9
-2  1 -2  1  0  1   6   3 -29.58850 -28.47227 -28.36578 -29.48200 -28.47359 -29.08304 -25.03154 -25.04339 -25.10614 -29.54071 -45.99336 46.57128 -20.57485 -9.54377
P	 -2.280161297	 -0.158716999	 -1.288337526
O	 -0.900471297	 -0.107256999	 -1.993897526
O	 -2.870611297	 1.420743001	 -1.708197526
O	 -2.165411297	 -0.146276999	 0.244042474
O	 -3.303791297	 -1.123836999	 -1.867157526
H	 -2.062581297	 1.732873001	 -2.125847526
O	 0.684880000	 0.052190000	 -0.001170000
H	 0.000000000	 0.000000000	 -0.706000000
H	 -0.000000000	 0.000000000	 0.705960000
