9
-2  1 -2  1  0  1   6   3 -28.98470 -28.29728 -28.03153 -28.71900 -28.11777 -28.48893 -26.25418 -26.26187 -26.31781 -28.97333 -31.11419 18.23343 -10.39292 -5.69965
P	 -2.399258527	 -1.589524706	 0.025612625
O	 -1.695748527	 -1.123934706	 -1.275267375
O	 -3.813638527	 -0.582314706	 -0.042777375
O	 -1.655888527	 -1.145974706	 1.295312625
O	 -2.935058527	 -3.013294706	 0.036152625
H	 -3.544528527	 -0.066524706	 -0.808487375
O	 0.684880000	 0.052190000	 -0.001170000
H	 0.000000000	 0.000000000	 -0.706000000
H	 -0.000000000	 0.000000000	 0.705960000
