9
-2  1 -2  1  0  1   6   3 -30.10140 -29.02299 -28.80461 -29.88310 -28.89886 -29.50830 -25.73897 -25.74113 -25.83702 -29.83098 -44.48079 40.12494 -16.36228 -9.11284
P	 -2.329426140	 1.163276319	 0.024251553
O	 -1.574456140	 0.786806319	 -1.276628447
O	 -2.164346140	 2.891766319	 -0.044138447
O	 -1.573616140	 0.741266319	 1.293951553
O	 -3.830346140	 0.915406319	 0.034791553
H	 -1.583106140	 2.916606319	 -0.809848447
O	 0.684880000	 0.052190000	 -0.001170000
H	 0.000000000	 0.000000000	 -0.706000000
H	 -0.000000000	 0.000000000	 0.705960000
