9
-2  1 -2  1  0  1   6   3 -33.57070 -32.57876 -32.35411 -33.34600 -32.44699 -33.00274 -29.55911 -29.56819 -29.65353 -33.29845 -43.19446 33.54975 -15.23860 -8.41514
P	 -0.888344302	 -0.055083122	 1.293632280
O	 -0.034424302	 -0.023313122	 -0.000127720
O	 -1.608854302	 1.523106878	 1.194682280
O	 -0.034424302	 -0.023313122	 2.570862280
O	 -2.064354302	 -1.020013122	 1.308072280
H	 -1.110904302	 1.823616878	 0.428852280
O	 2.023800000	 1.374240000	 1.295220000
H	 1.467750000	 0.980540000	 0.585030000
H	 1.445860000	 0.992640000	 1.996770000
