9
-2  1 -2  1  0  1   6   3 -32.36540 -31.62562 -31.37747 -32.11730 -31.45853 -31.86542 -29.44237 -29.44855 -29.51033 -32.31488 -34.89308 20.12808 -11.31164 -6.23824
P	 -1.037467232	 -0.156073434	 1.293079008
O	 -0.183547232	 -0.124303434	 -0.000680992
O	 -1.757977232	 1.422116566	 1.194129008
O	 -0.183547232	 -0.124303434	 2.570309008
O	 -2.213477232	 -1.121003434	 1.307519008
H	 -1.260027232	 1.722626566	 0.428299008
O	 2.023800000	 1.374240000	 1.295220000
H	 1.467750000	 0.980540000	 0.585030000
H	 1.445860000	 0.992640000	 1.996770000
