9
-2  1 -2  1  0  1   6   3 -29.65700 -29.05402 -28.87004 -29.47310 -28.95186 -29.27078 -27.42235 -27.43480 -27.47651 -29.75960 -29.42671 15.23685 -10.62375 -4.94599
P	 -2.620814919	 -0.186887443	 -1.482761420
O	 -1.241124919	 -0.135427443	 -2.188321420
O	 -3.211264919	 1.392572557	 -1.902621420
O	 -2.506064919	 -0.174447443	 0.049618580
O	 -3.644444919	 -1.152007443	 -2.061581420
H	 -2.403234919	 1.704702557	 -2.320271420
O	 0.684880000	 0.052190000	 -0.001170000
H	 0.000000000	 0.000000000	 -0.706000000
H	 -0.000000000	 0.000000000	 0.705960000
