9
-2  1 -2  1  0  1   6   3 -33.40520 -32.26209 -32.07503 -33.21810 -32.17430 -32.81558 -28.75312 -28.76433 -28.85393 -33.04717 -48.61834 43.25807 -17.91040 -9.77650
P	 -0.813782837	 -0.004587966	 1.293908916
O	 0.040137163	 0.027182034	 0.000148916
O	 -1.534292837	 1.573602034	 1.194958916
O	 0.040137163	 0.027182034	 2.571138916
O	 -1.989792837	 -0.969517966	 1.308348916
H	 -1.036342837	 1.874112034	 0.429128916
O	 2.023800000	 1.374240000	 1.295220000
H	 1.467750000	 0.980540000	 0.585030000
H	 1.445860000	 0.992640000	 1.996770000
