9
-2  1 -2  1  0  1   6   3 -28.59930 -27.98647 -27.79995 -28.41270 -27.85732 -28.18987 -26.94837 -26.95146 -26.97860 -28.50880 -32.24444 20.24749 -11.43606 -5.07579
P	 -1.423258406	 -0.079060846	 -0.322790935
O	 -0.569338406	 -0.047290846	 -1.616550935
O	 -2.143768406	 1.499129154	 -0.421740935
O	 -0.569338406	 -0.047290846	 0.954439065
O	 -2.599268406	 -1.043990846	 -0.308350935
H	 -1.645818406	 1.799639154	 -1.187570935
O	 2.108060000	 0.178230000	 1.228310000
H	 1.875630000	 0.115300000	 0.274070000
H	 1.158580000	 0.136730000	 1.490210000
