9
-2  1 -2  1  0  1   6   3 -32.32680 -31.58920 -31.36021 -32.09780 -31.45004 -31.85227 -29.69855 -29.71261 -29.77839 -32.21081 -34.36087 19.24091 -11.15069 -5.94016
P	 -1.052977980	 0.064857346	 1.293080256
O	 -0.199057980	 0.096627346	 -0.000679744
O	 -1.773487980	 1.643047346	 1.194130256
O	 -0.199057980	 0.096627346	 2.570310256
O	 -2.228987980	 -0.900072654	 1.307520256
H	 -1.275537980	 1.943557346	 0.428300256
O	 2.202030000	 -1.065540000	 1.295220000
H	 1.583050000	 -0.780840000	 0.585030000
H	 1.582580000	 -0.755830000	 1.996770000
