9
-2  1 -2  1  0  1   6   3 -29.11880 -27.88027 -27.72041 -28.95900 -27.82453 -28.51974 -23.85786 -23.86397 -23.95729 -28.74088 -50.57051 51.77154 -19.37891 -10.56301
P	 -2.094564250	 -1.383169305	 0.023786693
O	 -1.391054250	 -0.917579305	 -1.277093307
O	 -3.508944250	 -0.375959305	 -0.044603307
O	 -1.351194250	 -0.939619305	 1.293486693
O	 -2.630364250	 -2.806939305	 0.034326693
H	 -3.239834250	 0.139830695	 -0.810313307
O	 0.684880000	 0.052190000	 -0.001170000
H	 0.000000000	 0.000000000	 -0.706000000
H	 -0.000000000	 0.000000000	 0.705960000
