9
-2  1 -2  1  0  1   6   3 -34.18150 -33.31206 -33.08473 -33.95420 -33.17378 -33.65924 -31.04761 -31.05720 -31.13845 -33.95477 -39.48668 26.36091 -13.68959 -7.13942
P	 -2.711906953	 -0.165401026	 0.024813315
O	 -1.869846953	 -0.113941026	 -1.276066685
O	 -3.433186953	 1.414058974	 -0.043576685
O	 -1.846346953	 -0.152961026	 1.294513315
O	 -3.887806953	 -1.130521026	 0.035353315
H	 -2.942236953	 1.726188974	 -0.809286685
O	 0.684880000	 0.052190000	 -0.001170000
H	 0.000000000	 0.000000000	 -0.706000000
H	 -0.000000000	 0.000000000	 0.705960000
