9
-2  1 -2  1  0  1   6   3 -27.61870 -27.10302 -26.92268 -27.43830 -26.97568 -27.25229 -26.36757 -26.37322 -26.39490 -27.60091 -28.50291 14.48148 -9.41685 -4.16264
P	 -1.522612854	 -0.087313506	 -0.380562170
O	 -0.668692854	 -0.055543506	 -1.674322170
O	 -2.243122854	 1.490876494	 -0.479512170
O	 -0.668692854	 -0.055543506	 0.896667830
O	 -2.698622854	 -1.052243506	 -0.366122170
H	 -1.745172854	 1.791386494	 -1.245342170
O	 2.108060000	 0.178230000	 1.228310000
H	 1.875630000	 0.115300000	 0.274070000
H	 1.158580000	 0.136730000	 1.490210000
