9
-2  1 -2  1  0  1   6   3 -33.11820 -32.26588 -32.03929 -32.89160 -32.13461 -32.60593 -29.98956 -30.00408 -30.08386 -32.88659 -37.99438 24.89906 -12.87855 -6.91273
P	 -0.971983754	 0.025540876	 1.293356836
O	 -0.118063754	 0.057310876	 -0.000403164
O	 -1.692493754	 1.603730876	 1.194406836
O	 -0.118063754	 0.057310876	 2.570586836
O	 -2.147993754	 -0.939389124	 1.307796836
H	 -1.194543754	 1.904240876	 0.428576836
O	 2.202030000	 -1.065540000	 1.295220000
H	 1.583050000	 -0.780840000	 0.585030000
H	 1.582580000	 -0.755830000	 1.996770000
