9
-2  1 -2  1  0  1   6   3 -11.67780 -9.30144 -9.70490 -12.08130 -9.84226 -11.18907 -2.69362 -2.71303 -2.83716 -13.77411 -96.94352 149.93683 -46.17986 -20.58755
P	 -0.440975512	 0.247887815	 1.295292096
O	 0.412944488	 0.279657815	 0.001532096
O	 -1.161485512	 1.826077815	 1.196342096
O	 0.412944488	 0.279657815	 2.572522096
O	 -1.616985512	 -0.717042185	 1.309732096
H	 -0.663535512	 2.126587815	 0.430512096
O	 2.023800000	 1.374240000	 1.295220000
H	 1.467750000	 0.980540000	 0.585030000
H	 1.445860000	 0.992640000	 1.996770000
