10
-1  1 -1  1  0  1   7   3 -0.06733  1.59792  1.52131 -0.14393  1.40323  0.47646  7.76524  7.74673  7.67014  0.23270 -55.79181 89.06086 -19.19505 -13.84131
P	 -1.985867513	 -0.873416568	 -0.030448366
O	 -1.311157513	 -0.576666568	 -1.347888366
O	 -3.456677513	 -0.122286568	 -0.075368366
O	 -1.364857513	 -0.600266568	 1.296851634
O	 -2.426217513	 -2.465146568	 -0.075368366
H	 -3.546447513	 0.157573432	 -0.990668366
H	 -2.280467513	 -2.720476568	 -0.990638366
O	 0.634520000	 -0.069600000	 0.000450000
H	 0.000000000	 0.000000000	 -0.728000000
H	 -0.000000000	 0.000000000	 0.728340000
