10
-1  1 -1  1  0  1   7   3 -10.75530 -9.59530 -9.44429 -10.60430 -9.54402 -10.18968 -5.19113 -5.20142 -5.27891 -10.01911 -37.39236 48.30778 -11.31612 -9.61840
P	 -2.177011444	 -0.957483221	 -0.034118132
O	 -1.502301444	 -0.660733221	 -1.351558132
O	 -3.647821444	 -0.206353221	 -0.079038132
O	 -1.556001444	 -0.684333221	 1.293181868
O	 -2.617361444	 -2.549213221	 -0.079038132
H	 -3.737591444	 0.073506779	 -0.994338132
H	 -2.471611444	 -2.804543221	 -0.994308132
O	 0.634520000	 -0.069600000	 0.000450000
H	 0.000000000	 0.000000000	 -0.728000000
H	 -0.000000000	 0.000000000	 0.728340000
