10
-1  1 -1  1  0  1   7   3 -14.55300 -14.12159 -13.96753 -14.39900 -14.01511 -14.24681 -12.90746 -12.90820 -12.93136 -14.20984 -18.12822 12.41827 -4.88258 -3.61731
P	 -1.185915947	 0.138414492	 0.292472999
O	 -0.482435947	 0.061264492	 -1.040987001
O	 -2.084845947	 1.524404492	 0.270722999
O	 -0.482435947	 0.061264492	 1.604402999
O	 -2.363865947	 -1.019805508	 0.270702999
H	 -2.042835947	 1.813864492	 -0.645027001
H	 -2.385485947	 -1.311585508	 -0.645017001
O	 2.261430000	 -0.287880000	 -1.332070000
H	 1.341100000	 -0.216530000	 -1.625310000
H	 2.096890000	 -0.220060000	 -0.380450000
