10
-1  1 -1  1  0  1   7   3 -1.17823  0.55631  0.43018 -1.30437  0.29918 -0.66183  6.74390  6.71254  6.63204 -0.94149 -58.28718 93.09584 -21.35646 -14.39369
P	 -0.245582733	 -0.258713563	 0.008346248
O	 0.457897267	 -0.335863563	 -1.325113752
O	 -1.144512733	 1.127276437	 -0.013403752
O	 0.457897267	 -0.335863563	 1.320276248
O	 -1.423532733	 -1.416933563	 -0.013423752
H	 -1.102502733	 1.416736437	 -0.929153752
H	 -1.445152733	 -1.708713563	 -0.929143752
O	 2.128940000	 -1.561560000	 -0.022890000
H	 1.601340000	 -1.174560000	 -0.737010000
H	 1.627370000	 -1.193670000	 0.718970000
