10
-1  1 -1  1  0  1   7   3 -16.71360 -16.00778 -15.79319 -16.49900 -15.87230 -16.26024 -13.31683 -13.32315 -13.38390 -16.19943 -24.28413 20.20620 -6.26300 -5.85850
P	 -0.652535079	 0.099556008	 0.010703837
O	 0.050944921	 0.022406008	 -1.322756163
O	 -1.551465079	 1.485546008	 -0.011046163
O	 0.050944921	 0.022406008	 1.322633837
O	 -1.830485079	 -1.058663992	 -0.011066163
H	 -1.509455079	 1.775006008	 -0.926796163
H	 -1.852105079	 -1.350443992	 -0.926786163
O	 2.416820000	 1.062940000	 -0.022890000
H	 1.817870000	 0.799520000	 -0.737010000
H	 1.847430000	 0.812510000	 0.718970000
