10
-1  1 -1  1  0  1   7   3 -15.43060 -14.82284 -14.68329 -15.29100 -14.76503 -15.08625 -12.39837 -12.40606 -12.44669 -15.00275 -20.64656 17.19375 -6.48781 -5.06213
P	 -2.423534953	 0.304325430	 1.351449708
O	 -2.447724953	 0.223965430	 -0.155830292
O	 -3.223854953	 1.690235430	 1.761649708
O	 -1.175854953	 0.230375430	 2.163729708
O	 -3.465494953	 -0.853974570	 1.901159708
H	 -3.627644953	 1.977475430	 0.937879708
H	 -3.924374953	 -1.147974570	 1.109229708
O	 0.634520000	 -0.069600000	 0.000450000
H	 0.000000000	 0.000000000	 -0.728000000
H	 -0.000000000	 0.000000000	 0.728340000
