10
-1  1 -1  1  0  1   7   3 -15.33040 -14.74569 -14.61541 -15.20010 -14.68779 -15.00158 -12.29811 -12.30062 -12.34234 -14.94306 -20.36935 16.75246 -6.36163 -4.96454
P	 -2.405079917	 0.307257384	 -1.436892086
O	 -1.111829917	 0.226897384	 -2.211482086
O	 -3.160479917	 1.693167384	 -1.924892086
O	 -2.484699917	 0.233307384	 0.049777914
O	 -3.402119917	 -0.851042616	 -2.064402086
H	 -2.648969917	 1.980407384	 -2.686472086
H	 -2.945729917	 -1.145042616	 -2.857772086
O	 0.634520000	 -0.069600000	 0.000450000
H	 0.000000000	 0.000000000	 -0.728000000
H	 -0.000000000	 0.000000000	 0.728340000
