10
-1  1 -1  1  0  1   7   3 -1.17858  0.55598  0.42984 -1.30472  0.29886 -0.66217  6.74351  6.71215  6.63165 -0.94177 -58.28681 93.09505 -21.35641 -14.39361
P	 -0.183665321	 0.305768901	 0.008346248
O	 0.519814679	 0.228618901	 -1.325113752
O	 -1.082595321	 1.691758901	 -0.013403752
O	 0.519814679	 0.228618901	 1.320276248
O	 -1.361615321	 -0.852451099	 -0.013423752
H	 -1.040585321	 1.981218901	 -0.929153752
H	 -1.383235321	 -1.144231099	 -0.929143752
O	 2.416820000	 1.062940000	 -0.022890000
H	 1.817870000	 0.799520000	 -0.737010000
H	 1.847430000	 0.812510000	 0.718970000
