10
-1  1 -1  1  0  1   7   3 -13.65770 -12.98301 -12.82244 -13.49710 -12.88351 -13.25175 -11.07382 -11.07485 -11.10685 -13.01393 -25.23059 26.23623 -8.39299 -5.62658
P	 -0.953556603	 0.108741434	 -0.131886336
O	 -0.250076603	 0.031591434	 -1.465346336
O	 -1.852486603	 1.494731434	 -0.153636336
O	 -0.250076603	 0.031591434	 1.180043664
O	 -2.131506603	 -1.049478566	 -0.153656336
H	 -1.810476603	 1.784191434	 -1.069386336
H	 -2.153126603	 -1.341258566	 -1.069376336
O	 2.284330000	 -0.287880000	 1.292430000
H	 2.078110000	 -0.216530000	 0.348770000
H	 1.377920000	 -0.220060000	 1.625740000
