10
-1  1 -1  1  0  1   7   3 -15.05060 -14.50270 -14.26984 -14.81780 -14.33739 -14.63194 -12.45238 -12.45216 -12.49205 -14.74977 -19.11561 13.60517 -4.62343 -4.61589
P	 -2.559299305	 -1.125616526	 -0.041457665
O	 -1.884589305	 -0.828866526	 -1.358897665
O	 -4.030109305	 -0.374486526	 -0.086377665
O	 -1.938289305	 -0.852466526	 1.285842335
O	 -2.999649305	 -2.717346526	 -0.086377665
H	 -4.119879305	 -0.094626526	 -1.001677665
H	 -2.853899305	 -2.972676526	 -1.001647665
O	 0.634520000	 -0.069600000	 0.000450000
H	 0.000000000	 0.000000000	 -0.728000000
H	 -0.000000000	 0.000000000	 0.728340000
