10
-1  1 -1  1  0  1   7   3 -16.72300 -16.14028 -15.92981 -16.51260 -15.99952 -16.31562 -13.91627 -13.91875 -13.96496 -16.34153 -21.10393 14.74318 -5.08871 -4.89206
P	 -0.741207476	 0.104822768	 0.011175355
O	 -0.037727476	 0.027672768	 -1.322284645
O	 -1.640137476	 1.490812768	 -0.010574645
O	 -0.037727476	 0.027672768	 1.323105355
O	 -1.919157476	 -1.053397232	 -0.010594645
H	 -1.598127476	 1.780272768	 -0.926324645
H	 -1.940777476	 -1.345177232	 -0.926314645
O	 2.128940000	 -1.561560000	 -0.022890000
H	 1.601340000	 -1.174560000	 -0.737010000
H	 1.627370000	 -1.193670000	 0.718970000
