10
-1  1 -1  1  0  1   7   3 14.31540 16.01691 15.81237 14.11090 15.72293 14.74551 20.75222 20.75452 20.64678 11.18064 -63.83391 126.62855 -36.60682 -15.00717
P	 -0.525486663	 0.054546644	 -0.092903401
O	 0.177993337	 -0.022603356	 -1.426363401
O	 -1.424416663	 1.440536644	 -0.114653401
O	 0.177993337	 -0.022603356	 1.219026599
O	 -1.703436663	 -1.103673356	 -0.114673401
H	 -1.382406663	 1.729996644	 -1.030403401
H	 -1.725056663	 -1.395453356	 -1.030393401
O	 2.261430000	 -0.287880000	 -1.332070000
H	 1.341100000	 -0.216530000	 -1.625310000
H	 2.096890000	 -0.220060000	 -0.380450000
