10
-1  1 -1  1  0  1   7   3 -15.39310 -14.91198 -14.77960 -15.26070 -14.84358 -15.09966 -12.93158 -12.93309 -12.96851 -15.10933 -17.81535 11.90706 -5.10876 -4.09229
P	 -2.499725439	 0.319368036	 -1.493787985
O	 -1.206475439	 0.239008036	 -2.268377985
O	 -3.255125439	 1.705278036	 -1.981787985
O	 -2.579345439	 0.245418036	 -0.007117985
O	 -3.496765439	 -0.838931964	 -2.121297985
H	 -2.743615439	 1.992518036	 -2.743367985
H	 -3.040375439	 -1.132931964	 -2.914667985
O	 0.634520000	 -0.069600000	 0.000450000
H	 0.000000000	 0.000000000	 -0.728000000
H	 -0.000000000	 0.000000000	 0.728340000
