10
-1  1 -1  1  0  1   7   3 -15.05070 -14.50272 -14.26986 -14.81780 -14.33741 -14.63196 -12.45240 -12.45217 -12.49206 -14.74978 -19.11558 13.60515 -4.62346 -4.61589
P	 -2.254463352	 1.653615387	 -0.041457665
O	 -1.660113352	 1.217665387	 -1.358897665
O	 -2.339363352	 3.302935387	 -0.086377665
O	 -1.707403352	 1.252375387	 1.285842335
O	 -3.853113352	 1.239095387	 -0.086377665
H	 -2.141893352	 3.520605387	 -1.001677665
H	 -4.001363353	 0.985205387	 -1.001647665
O	 0.634520000	 -0.069600000	 0.000450000
H	 0.000000000	 0.000000000	 -0.728000000
H	 -0.000000000	 0.000000000	 0.728340000
