10
-1  1 -1  1  0  1   7   3 -16.72310 -16.14039 -15.92993 -16.51270 -15.99964 -16.31573 -13.91643 -13.91891 -13.96512 -16.34164 -21.10391 14.74303 -5.08873 -4.89203
P	 -0.746309030	 0.058313429	 0.011175355
O	 -0.042829030	 -0.018836571	 -1.322284645
O	 -1.645239030	 1.444303429	 -0.010574645
O	 -0.042829030	 -0.018836571	 1.323105355
O	 -1.924259030	 -1.099906571	 -0.010594645
H	 -1.603229030	 1.733763429	 -0.926324645
H	 -1.945879030	 -1.391686571	 -0.926314645
O	 2.416820000	 1.062940000	 -0.022890000
H	 1.817870000	 0.799520000	 -0.737010000
H	 1.847430000	 0.812510000	 0.718970000
