10
-1  1 -1  1  0  1   7   3 -13.51290 -12.84609 -12.71196 -13.37870 -12.77321 -13.13587 -10.75351 -10.75396 -10.78380 -12.98850 -26.02237 27.55099 -8.75419 -5.76292
P	 -0.965772852	 0.110458543	 0.164014199
O	 -0.262292852	 0.033308543	 -1.169445801
O	 -1.864702852	 1.496448543	 0.142264199
O	 -0.262292852	 0.033308543	 1.475944199
O	 -2.143722852	 -1.047761457	 0.142244199
H	 -1.822692852	 1.785908543	 -0.773485801
H	 -2.165342852	 -1.339541457	 -0.773475801
O	 2.261430000	 -0.287880000	 -1.332070000
H	 1.341100000	 -0.216530000	 -1.625310000
H	 2.096890000	 -0.220060000	 -0.380450000
