10
-1  1 -1  1  0  1   7   3 -14.15330 -13.78342 -13.59007 -13.95990 -13.64396 -13.83317 -12.45587 -12.45494 -12.47044 -14.02151 -14.73913  7.12231 -3.19743 -3.20725
P	 -2.750443235	 -1.209683179	 -0.045127432
O	 -2.075733235	 -0.912933179	 -1.362567432
O	 -4.221253235	 -0.458553179	 -0.090047432
O	 -2.129433235	 -0.936533179	 1.282172568
O	 -3.190793235	 -2.801413179	 -0.090047432
H	 -4.311023235	 -0.178693179	 -1.005347432
H	 -3.045043235	 -3.056743179	 -1.005317432
O	 0.634520000	 -0.069600000	 0.000450000
H	 0.000000000	 0.000000000	 -0.728000000
H	 -0.000000000	 0.000000000	 0.728340000
