10
-1  1 -1  1  0  1   7   3 -14.70450 -14.25461 -14.03886 -14.48880 -14.09926 -14.33564 -12.59567 -12.59470 -12.62121 -14.50150 -16.68369  9.85048 -3.82188 -3.84640
P	 -2.338651270	 1.715366407	 -0.043292548
O	 -1.744301270	 1.279416407	 -1.360732548
O	 -2.423551270	 3.364686407	 -0.088212548
O	 -1.791591270	 1.314126407	 1.284007452
O	 -3.937301270	 1.300846407	 -0.088212548
H	 -2.226081270	 3.582356407	 -1.003512548
H	 -4.085551270	 1.046956407	 -1.003482548
O	 0.634520000	 -0.069600000	 0.000450000
H	 0.000000000	 0.000000000	 -0.728000000
H	 -0.000000000	 0.000000000	 0.728340000
