10
-1  1 -1  1  0  1   7   3 -16.36580 -15.95615 -15.77669 -16.18630 -15.83256 -16.04625 -14.59606 -14.59563 -14.61736 -16.17582 -17.08406  8.07935 -3.70468 -3.46643
P	 -2.911614311	 0.319356904	 -0.043798155
O	 -2.178914311	 0.238996904	 -1.361238155
O	 -3.809804311	 1.705266904	 -0.088718155
O	 -2.237224311	 0.245406904	 1.283501845
O	 -4.088824311	 -0.838943096	 -0.088718155
H	 -3.747614311	 1.992506904	 -1.004018155
H	 -4.090264311	 -1.132943096	 -1.003988155
O	 0.634520000	 -0.069600000	 0.000450000
H	 0.000000000	 0.000000000	 -0.728000000
H	 -0.000000000	 0.000000000	 0.728340000
