10
-1  1 -1  1  0  1   7   3 -16.95130 -16.45471 -16.25686 -16.75350 -16.32127 -16.58563 -14.75728 -14.75904 -14.79339 -16.66778 -19.16367 11.07499 -4.44301 -4.13609
P	 -2.811247524	 0.308347727	 -0.042023694
O	 -2.078547524	 0.227987727	 -1.359463694
O	 -3.709437524	 1.694257727	 -0.086943694
O	 -2.136857524	 0.234397727	 1.285276306
O	 -3.988457524	 -0.849952273	 -0.086943694
H	 -3.647247524	 1.981497727	 -1.002243694
H	 -3.989897524	 -1.143952273	 -1.002213694
O	 0.634520000	 -0.069600000	 0.000450000
H	 0.000000000	 0.000000000	 -0.728000000
H	 -0.000000000	 0.000000000	 0.728340000
