10
-1  1 -1  1  0  1   7   3 -16.72780 -15.86251 -15.66629 -16.53150 -15.75767 -16.23590 -12.77901 -12.79025 -12.86334 -16.04346 -28.95878 28.19881 -8.21715 -7.06634
P	 -2.510147164	 0.275320194	 -0.036700309
O	 -1.777447164	 0.194960194	 -1.354140309
O	 -3.408337164	 1.661230194	 -0.081620309
O	 -1.835757164	 0.201370194	 1.290599691
O	 -3.687357164	 -0.882979806	 -0.081620309
H	 -3.346147164	 1.948470194	 -0.996920309
H	 -3.688797164	 -1.176979806	 -0.996890309
O	 0.634520000	 -0.069600000	 0.000450000
H	 0.000000000	 0.000000000	 -0.728000000
H	 -0.000000000	 0.000000000	 0.728340000
