10
-1  1 -1  1  0  1   7   3 -12.18060 -10.96773 -10.85936 -12.07220 -10.96805 -11.63946 -6.42622 -6.44688 -6.52527 -11.38107 -39.82073 51.09856 -12.59956 -10.05934
P	 -0.410790981	 -0.137534786	 0.009289284
O	 0.292689019	 -0.214684786	 -1.324170716
O	 -1.309720981	 1.248455214	 -0.012460716
O	 0.292689019	 -0.214684786	 1.321219284
O	 -1.588740981	 -1.295754786	 -0.012480716
H	 -1.267710981	 1.537915214	 -0.928210716
H	 -1.610360981	 -1.587534786	 -0.928200716
O	 2.128940000	 -1.561560000	 -0.022890000
H	 1.601340000	 -1.174560000	 -0.737010000
H	 1.627370000	 -1.193670000	 0.718970000
