10
-1  1 -1  1  0  1   7   3 -7.32693 -6.27501 -6.21033 -7.26225 -6.28890 -6.87087 -3.16244 -3.16548 -3.21113 -6.83789 -38.51385 56.83420 -16.17949 -8.97876
P	 -0.733768647	 0.080976275	 -0.006341188
O	 -0.030288647	 0.003826275	 -1.339801188
O	 -1.632698647	 1.466966275	 -0.028091188
O	 -0.030288647	 0.003826275	 1.305588812
O	 -1.911718647	 -1.077243725	 -0.028111188
H	 -1.590688647	 1.756426275	 -0.943841188
H	 -1.933338647	 -1.369023725	 -0.943831188
O	 2.284330000	 -0.287880000	 1.292430000
H	 2.078110000	 -0.216530000	 0.348770000
H	 1.377920000	 -0.220060000	 1.625740000
