10
-1  1 -1  1  0  1   7   3 -16.37500 -15.89571 -15.69903 -16.17830 -15.75963 -16.01514 -14.07404 -14.07332 -14.10526 -16.10868 -18.56568 10.73368 -4.18670 -4.08998
P	 -0.840082982	 0.017070851	 0.011646872
O	 -0.136602982	 -0.060079149	 -1.321813128
O	 -1.739012982	 1.403060851	 -0.010103128
O	 -0.136602982	 -0.060079149	 1.323576872
O	 -2.018032982	 -1.141149149	 -0.010123128
H	 -1.697002982	 1.692520851	 -0.925853128
H	 -2.039652982	 -1.432929149	 -0.925843128
O	 2.416820000	 1.062940000	 -0.022890000
H	 1.817870000	 0.799520000	 -0.737010000
H	 1.847430000	 0.812510000	 0.718970000
