10
-1  1 -1  1  0  1   7   3 -14.54230 -13.73668 -13.50256 -14.30810 -13.58584 -14.03174 -10.68630 -10.69009 -10.75721 -13.99135 -26.07809 25.79316 -7.03805 -6.66837
P	 -2.086087517	 1.530113349	 -0.037787899
O	 -1.491737517	 1.094163349	 -1.355227899
O	 -2.170987517	 3.179433349	 -0.082707899
O	 -1.539027517	 1.128873349	 1.289512101
O	 -3.684737517	 1.115593349	 -0.082707899
H	 -1.973517517	 3.397103349	 -0.998007899
H	 -3.832987517	 0.861703349	 -0.997977899
O	 0.634520000	 -0.069600000	 0.000450000
H	 0.000000000	 0.000000000	 -0.728000000
H	 -0.000000000	 0.000000000	 0.728340000
