10
-1  1 -1  1  0  1   7   3 -17.30060 -16.57743 -16.36636 -17.08960 -16.44858 -16.84558 -14.02544 -14.03308 -14.09573 -16.75993 -24.93810 20.70134 -6.61503 -5.90814
P	 -2.610513951	 0.286329372	 -0.038474771
O	 -1.877813951	 0.205969372	 -1.355914771
O	 -3.508703951	 1.672239372	 -0.083394771
O	 -1.936123951	 0.212379372	 1.288825229
O	 -3.787723951	 -0.871970628	 -0.083394771
H	 -3.446513951	 1.959479372	 -0.998694771
H	 -3.789163951	 -1.165970628	 -0.998664771
O	 0.634520000	 -0.069600000	 0.000450000
H	 0.000000000	 0.000000000	 -0.728000000
H	 -0.000000000	 0.000000000	 0.728340000
