10
-1  1 -1  1  0  1   7   3 -14.52560 -13.98089 -13.80880 -14.35350 -13.86196 -14.15844 -12.54374 -12.54407 -12.57325 -14.00248 -20.96884 17.69011 -6.25830 -4.46546
P	 -1.063450581	 0.122624014	 -0.194658910
O	 -0.359970581	 0.045474014	 -1.528118910
O	 -1.962380581	 1.508614014	 -0.216408910
O	 -0.359970581	 0.045474014	 1.117271090
O	 -2.241400581	 -1.035595986	 -0.216428910
H	 -1.920370581	 1.798074014	 -1.132158910
H	 -2.263020581	 -1.327375986	 -1.132148910
O	 2.284330000	 -0.287880000	 1.292430000
H	 2.078110000	 -0.216530000	 0.348770000
H	 1.377920000	 -0.220060000	 1.625740000
