10
-1  1 -1  1  0  1   7   3 -0.06740  1.59784  1.52123 -0.14402  1.40313  0.47637  7.76517  7.74666  7.67007  0.23265 -55.79161 89.06060 -19.19505 -13.84129
P	 -1.749335847	 1.283109271	 -0.030448366
O	 -1.154985847	 0.847159271	 -1.347888366
O	 -1.834235847	 2.932429271	 -0.075368366
O	 -1.202275847	 0.881869271	 1.296851634
O	 -3.347985847	 0.868589271	 -0.075368366
H	 -1.636765847	 3.150099271	 -0.990668366
H	 -3.496235847	 0.614699271	 -0.990638366
O	 0.634520000	 -0.069600000	 0.000450000
H	 0.000000000	 0.000000000	 -0.728000000
H	 -0.000000000	 0.000000000	 0.728340000
