10
-1  1 -1  1  0  1   7   3 -14.76360 -14.02963 -13.90373 -14.63770 -13.99478 -14.38481 -11.06845 -11.07840 -11.12185 -14.21979 -23.95014 24.02119 -8.15792 -6.13291
P	 -2.328177587	 0.292369092	 1.298619197
O	 -2.352367587	 0.212009092	 -0.208660803
O	 -3.128497587	 1.678279092	 1.708819197
O	 -1.080497587	 0.218419092	 2.110899197
O	 -3.370137587	 -0.865930908	 1.848329197
H	 -3.532287587	 1.965519092	 0.885049197
H	 -3.829017587	 -1.159930908	 1.056399197
O	 0.634520000	 -0.069600000	 0.000450000
H	 0.000000000	 0.000000000	 -0.728000000
H	 -0.000000000	 0.000000000	 0.728340000
