10
-1  1 -1  1  0  1   7   3 -14.15790 -13.81374 -13.67118 -14.01530 -13.71169 -13.89389 -12.92606 -12.92670 -12.94244 -13.91374 -15.56813  8.29221 -3.76552 -2.87230
P	 -1.295987494	 0.152392466	 0.356702399
O	 -0.592507494	 0.075242466	 -0.976757601
O	 -2.194917494	 1.538382466	 0.334952399
O	 -0.592507494	 0.075242466	 1.668632399
O	 -2.473937494	 -1.005827534	 0.334932399
H	 -2.152907494	 1.827842466	 -0.580797601
H	 -2.495557494	 -1.297607534	 -0.580787601
O	 2.261430000	 -0.287880000	 -1.332070000
H	 1.341100000	 -0.216530000	 -1.625310000
H	 2.096890000	 -0.220060000	 -0.380450000
