10
-1  1 -1  1  0  1   7   3 12.12090 13.80421 13.67024 11.98700 13.57547 12.61454 18.37402 18.37179 18.27090  9.94302 -61.21048 119.57720 -33.94966 -14.47404
P	 -0.513980691	 0.053211115	 0.119203961
O	 0.189499309	 -0.023938885	 -1.214256039
O	 -1.412910691	 1.439201115	 0.097453961
O	 0.189499309	 -0.023938885	 1.431133961
O	 -1.691930691	 -1.105008885	 0.097433961
H	 -1.370900691	 1.728661115	 -0.818296039
H	 -1.713550691	 -1.396788885	 -0.818286039
O	 2.284330000	 -0.287880000	 1.292430000
H	 2.078110000	 -0.216530000	 0.348770000
H	 1.377920000	 -0.220060000	 1.625740000
