10
-1  1 -1  1  0  1   7   3 -12.67980 -11.45945 -11.36550 -12.58580 -11.47661 -12.14947 -7.07188 -7.09169 -7.16655 -11.81456 -40.41688 51.82449 -13.13728 -10.08490
P	 -2.309413590	 0.253301839	 -0.033151386
O	 -1.576713590	 0.172941839	 -1.350591386
O	 -3.207603590	 1.639211839	 -0.078071386
O	 -1.635023590	 0.179351839	 1.294148614
O	 -3.486623590	 -0.904998161	 -0.078071386
H	 -3.145413590	 1.926451839	 -0.993371386
H	 -3.488063590	 -1.198998161	 -0.993341386
O	 0.634520000	 -0.069600000	 0.000450000
H	 0.000000000	 0.000000000	 -0.728000000
H	 -0.000000000	 0.000000000	 0.728340000
