10
-1  1 -1  1  0  1   7   3 -16.37490 -15.89561 -15.69893 -16.17820 -15.75953 -16.01505 -14.07390 -14.07318 -14.10512 -16.10858 -18.56568 10.73379 -4.18668 -4.09000
P	 -0.823811600	 0.165412156	 0.011646872
O	 -0.120331600	 0.088262156	 -1.321813128
O	 -1.722741600	 1.551402156	 -0.010103128
O	 -0.120331600	 0.088262156	 1.323576872
O	 -2.001761600	 -0.992807844	 -0.010123128
H	 -1.680731600	 1.840862156	 -0.925853128
H	 -2.023381600	 -1.284587844	 -0.925843128
O	 2.128940000	 -1.561560000	 -0.022890000
H	 1.601340000	 -1.174560000	 -0.737010000
H	 1.627370000	 -1.193670000	 0.718970000
