10
-1  1 -1  1  0  1   7   3 -12.18080 -10.96795 -10.85959 -12.07240 -10.96827 -11.63969 -6.42650 -6.44716 -6.52554 -11.38128 -39.82055 51.09813 -12.59958 -10.05928
P	 -0.371213224	 0.223283744	 0.009289284
O	 0.332266776	 0.146133744	 -1.324170716
O	 -1.270143224	 1.609273744	 -0.012460716
O	 0.332266776	 0.146133744	 1.321219284
O	 -1.549163224	 -0.934936256	 -0.012480716
H	 -1.228133224	 1.898733744	 -0.928210716
H	 -1.570783224	 -1.226716256	 -0.928200716
O	 2.416820000	 1.062940000	 -0.022890000
H	 1.817870000	 0.799520000	 -0.737010000
H	 1.847430000	 0.812510000	 0.718970000
