10
-1  1 -1  1  0  1   7   3 -14.54220 -13.73665 -13.50253 -14.30810 -13.58581 -14.03170 -10.68628 -10.69006 -10.75718 -13.99132 -26.07814 25.79320 -7.03801 -6.66837
P	 -2.368155374	 -1.041549873	 -0.037787899
O	 -1.693445374	 -0.744799873	 -1.355227899
O	 -3.838965374	 -0.290419873	 -0.082707899
O	 -1.747145374	 -0.768399873	 1.289512101
O	 -2.808505374	 -2.633279873	 -0.082707899
H	 -3.928735374	 -0.010559873	 -0.998007899
H	 -2.662755374	 -2.888609873	 -0.997977899
O	 0.634520000	 -0.069600000	 0.000450000
H	 0.000000000	 0.000000000	 -0.728000000
H	 -0.000000000	 0.000000000	 0.728340000
