11
0  1  0  1  0  1   3   8 -12.05116 -11.24555 -11.24050 -12.04611 -11.31442 -11.76931 -8.31190 -8.32479 -8.40036 -10.72182 -19.75272 24.36035 -8.99234 -6.33711
O	 0.715640000	 -1.020197000	 3.076516000
H	 0.875518000	 -0.705004000	 3.967508000
H	 -0.187800000	 -0.734731000	 2.859123000
P	 -1.232311884	 -0.951412527	 0.490924071
O	 0.352415116	 -0.985108527	 0.379825071
O	 -1.665141884	 -0.062000527	 -0.765104929
O	 -1.742718884	 -0.549072527	 1.816654071
O	 -1.768394884	 -2.378074527	 0.037955071
H	 -1.414753884	 0.860630473	 -0.648672929
H	 -1.380263884	 -2.667962527	 -0.794628929
H	 0.733726116	 -1.022756527	 1.287961071
