11
0  1  0  1  0  1   3   8 -11.22606 -10.64033 -10.55938 -11.14510 -10.60746 -10.93888 -8.59843 -8.60355 -8.65237 -10.57517 -16.60191 16.59654 -5.82968 -4.74012
O	 0.715640000	 -1.020197000	 3.076516000
H	 0.875518000	 -0.705004000	 3.967508000
H	 -0.187800000	 -0.734731000	 2.859123000
P	 1.014316131	 -0.592668498	 -0.157331562
O	 2.263550131	 -0.861508498	 0.787113438
O	 1.608437131	 0.383257502	 -1.275629562
O	 -0.203285869	 -0.151853498	 0.551951438
O	 0.777635131	 -1.910531498	 -1.014739562
H	 1.806562131	 1.254484502	 -0.916172562
H	 1.589013131	 -2.234312498	 -1.420582562
H	 1.943137131	 -0.979075498	 1.711797438
