11
0  1  0  1  0  1   3   8 -10.73943 -10.23866 -10.14286 -10.64363 -10.18760 -10.47011 -8.45930 -8.46354 -8.50827 -10.19153 -14.27198 12.77050 -4.58979 -4.10026
O	 0.715640000	 -1.020197000	 3.076516000
H	 0.875518000	 -0.705004000	 3.967508000
H	 -0.187800000	 -0.734731000	 2.859123000
P	 1.072768376	 -0.590710331	 -0.222318160
O	 2.322002376	 -0.859550331	 0.722126840
O	 1.666889376	 0.385215669	 -1.340616160
O	 -0.144833624	 -0.149895331	 0.486964840
O	 0.836087376	 -1.908573331	 -1.079726160
H	 1.865014376	 1.256442669	 -0.981159160
H	 1.647465376	 -2.232354331	 -1.485569160
H	 2.001589376	 -0.977117331	 1.646810840
