11
0  1  0  1  0  1   3   8 -5.99175 -5.65928 -5.57306 -5.90553 -5.61259 -5.79542 -4.16694 -4.16767 -4.19961 -5.49785 -7.76133  7.64109 -2.71701 -2.66060
O	 1.957643626	 -0.305198081	 3.384659840
H	 2.415247626	 0.253131919	 4.015247840
H	 1.012029626	 -0.120663081	 3.513944840
P	 -0.330456000	 0.164634000	 0.264146000
O	 1.207781000	 0.080239000	 0.653429000
O	 -0.409690000	 1.498144000	 -0.614191000
O	 -1.256717000	 0.048350000	 1.408031000
O	 -0.596943000	 -0.936715000	 -0.851177000
H	 -0.273362000	 2.285121000	 -0.076063000
H	 0.051386000	 -0.902002000	 -1.562754000
H	 1.287548000	 -0.331858000	 1.545247000
