11
0  1  0  1  0  1   3   8 -5.52966 -5.30568 -5.22160 -5.44558 -5.25497 -5.37372 -4.29454 -4.29417 -4.31445 -5.22773 -5.65520  3.78401 -1.52318 -1.83336
O	 2.024653188	 -0.302532089	 3.568601124
H	 2.482257188	 0.255797911	 4.199189124
H	 1.079039188	 -0.117997089	 3.697886124
P	 -0.330456000	 0.164634000	 0.264146000
O	 1.207781000	 0.080239000	 0.653429000
O	 -0.409690000	 1.498144000	 -0.614191000
O	 -1.256717000	 0.048350000	 1.408031000
O	 -0.596943000	 -0.936715000	 -0.851177000
H	 -0.273362000	 2.285121000	 -0.076063000
H	 0.051386000	 -0.902002000	 -1.562754000
H	 1.287548000	 -0.331858000	 1.545247000
