11
0  1  0  1  0  1   3   8 -9.14875 -8.37230 -8.30507 -9.08151 -8.39855 -8.83060 -4.75500 -4.77675 -4.86496 -8.06755 -17.58194 24.20039 -8.52083 -6.16516
O	 0.715640000	 -1.020197000	 3.076516000
H	 0.875518000	 -0.705004000	 3.967508000
H	 -0.187800000	 -0.734731000	 2.859123000
P	 -1.537162931	 0.471466417	 1.141084554
O	 0.017443069	 0.769125417	 1.001676554
O	 -2.208744931	 1.880215417	 0.794084554
O	 -1.923891931	 -0.170757583	 2.413068554
O	 -1.971135931	 -0.380477583	 -0.129264446
H	 -2.044374931	 2.530553417	 1.485129554
H	 -1.657637931	 0.005856417	 -0.954093446
H	 0.506978069	 0.211749417	 1.650686554
