11
0  1  0  1  0  1   3   8 -3.12131 -2.63233 -2.61631 -3.10529 -2.68230 -2.93697 -0.04290 -0.05031 -0.07432 -2.39536 -11.74558 16.96197 -3.30561 -4.30613
O	 -0.382242426	 0.423711198	 3.703501495
H	 -0.274352426	 1.045670198	 4.424820495
H	 -1.128581426	 0.761252198	 3.180053495
P	 -0.330456000	 0.164634000	 0.264146000
O	 1.207781000	 0.080239000	 0.653429000
O	 -0.409690000	 1.498144000	 -0.614191000
O	 -1.256717000	 0.048350000	 1.408031000
O	 -0.596943000	 -0.936715000	 -0.851177000
H	 -0.273362000	 2.285121000	 -0.076063000
H	 0.051386000	 -0.902002000	 -1.562754000
H	 1.287548000	 -0.331858000	 1.545247000
