11
0  1  0  1  0  1   3   8 -10.60467 -9.67069 -9.70748 -10.64146 -9.76925 -10.29609 -6.64413 -6.65509 -6.70864 -9.75985 -26.76454 36.74392 -12.33731 -7.40192
O	 0.715640000	 -1.020197000	 3.076516000
H	 0.875518000	 -0.705004000	 3.967508000
H	 -0.187800000	 -0.734731000	 2.859123000
P	 0.838959398	 -0.598542998	 0.037628233
O	 2.088193398	 -0.867382998	 0.982073233
O	 1.433080398	 0.377383002	 -1.080669767
O	 -0.378642602	 -0.157727998	 0.746911233
O	 0.602278398	 -1.916405998	 -0.819779767
H	 1.631205398	 1.248610002	 -0.721212767
H	 1.413656398	 -2.240186998	 -1.225622767
H	 1.767780398	 -0.984949998	 1.906757233
