11
0  1  0  1  0  1   3   8 -9.58565 -9.13159 -9.01422 -9.46829 -9.08285 -9.32711 -6.98287 -6.98828 -7.03908 -8.93736 -11.62960 10.67616 -4.17494 -3.80898
O	 0.715640000	 -1.020197000	 3.076516000
H	 0.875518000	 -0.705004000	 3.967508000
H	 -0.187800000	 -0.734731000	 2.859123000
P	 -1.571939919	 0.676790820	 0.903446313
O	 -0.017333919	 0.974449820	 0.764038313
O	 -2.243521919	 2.085539820	 0.556446313
O	 -1.958668919	 0.034566820	 2.175430313
O	 -2.005912919	 -0.175153180	 -0.366902687
H	 -2.079151919	 2.735877820	 1.247491313
H	 -1.692414919	 0.211180820	 -1.191731687
H	 0.472201081	 0.417073820	 1.413048313
