11
0  1  0  1  0  1   3   8 -3.12872 -2.90658 -2.85458 -3.07672 -2.89289 -3.00159 -1.45124 -1.45468 -1.46044 -2.88666 -4.76615  5.18840 -1.12387 -2.18504
O	 -0.660540830	 0.549639398	 4.063210577
H	 -0.552650830	 1.171598398	 4.784529577
H	 -1.406879830	 0.887180398	 3.539762577
P	 -0.330456000	 0.164634000	 0.264146000
O	 1.207781000	 0.080239000	 0.653429000
O	 -0.409690000	 1.498144000	 -0.614191000
O	 -1.256717000	 0.048350000	 1.408031000
O	 -0.596943000	 -0.936715000	 -0.851177000
H	 -0.273362000	 2.285121000	 -0.076063000
H	 0.051386000	 -0.902002000	 -1.562754000
H	 1.287548000	 -0.331858000	 1.545247000
