11
0  1  0  1  0  1   3   8  5.82644  7.06725  6.76893  5.52811  6.69704  5.98861 12.34033 12.32804 12.25066  6.09548 -33.49824 70.73442 -21.30371 -9.83699
O	 1.483382822	 -1.507902706	 2.201521635
H	 1.794135822	 -1.513000706	 3.108263635
H	 0.516560822	 -1.425252706	 2.259647635
P	 -0.330456000	 0.164634000	 0.264146000
O	 1.207781000	 0.080239000	 0.653429000
O	 -0.409690000	 1.498144000	 -0.614191000
O	 -1.256717000	 0.048350000	 1.408031000
O	 -0.596943000	 -0.936715000	 -0.851177000
H	 -0.273362000	 2.285121000	 -0.076063000
H	 0.051386000	 -0.902002000	 -1.562754000
H	 1.287548000	 -0.331858000	 1.545247000
