11
0  1  0  1  0  1   3   8 -13.84120 -12.92180 -12.92391 -13.84331 -13.00535 -13.52076 -9.68223 -9.69970 -9.77310 -12.71041 -26.33732 32.51317 -11.67804 -7.20821
O	 0.715640000	 -1.020197000	 3.076516000
H	 0.875518000	 -0.705004000	 3.967508000
H	 -0.187800000	 -0.734731000	 2.859123000
P	 -0.358888406	 0.130413227	 0.340273038
O	 1.179348594	 0.046018227	 0.729556038
O	 -0.438122406	 1.463923227	 -0.538063962
O	 -1.285149406	 0.014129227	 1.484158038
O	 -0.625375406	 -0.970935773	 -0.775049962
H	 -0.301794406	 2.250900227	 0.000064038
H	 0.022953594	 -0.936222773	 -1.486626962
H	 1.259115594	 -0.366078773	 1.621374038
