11
0  1  0  1  0  1   3   8  5.65942  7.47079  7.03472  5.22334  6.95146  5.89895 12.14967 12.12948 12.00280  4.30143 -52.54057 107.14014 -36.36171 -13.93642
O	 0.715640000	 -1.020197000	 3.076516000
H	 0.875518000	 -0.705004000	 3.967508000
H	 -0.187800000	 -0.734731000	 2.859123000
P	 0.605150421	 -0.606375665	 0.297574626
O	 1.854384421	 -0.875215665	 1.242019626
O	 1.199271421	 0.369550335	 -0.820723374
O	 -0.612451579	 -0.165560665	 1.006857626
O	 0.368469421	 -1.924238665	 -0.559833374
H	 1.397396421	 1.240777335	 -0.461266374
H	 1.179847421	 -2.248019665	 -0.965676374
H	 1.533971421	 -0.992782665	 2.166703626
