11
0  1  0  1  0  1   3   8 -6.44877 -6.19758 -6.10279 -6.35398 -6.13460 -6.27088 -4.75801 -4.75352 -4.77593 -6.12408 -7.09458  5.14422 -1.95570 -2.21803
O	 1.595288435	 -2.179928253	 2.576535712
H	 1.906041435	 -2.185026253	 3.483277712
H	 0.628466435	 -2.097278253	 2.634661712
P	 -0.330456000	 0.164634000	 0.264146000
O	 1.207781000	 0.080239000	 0.653429000
O	 -0.409690000	 1.498144000	 -0.614191000
O	 -1.256717000	 0.048350000	 1.408031000
O	 -0.596943000	 -0.936715000	 -0.851177000
H	 -0.273362000	 2.285121000	 -0.076063000
H	 0.051386000	 -0.902002000	 -1.562754000
H	 1.287548000	 -0.331858000	 1.545247000
