11
0  1  0  1  0  1   3   8 -1.04095 -0.25757 -0.33414 -1.11752 -0.42151 -0.84077  3.42452  3.41134  3.37132  0.12702 -20.52306 34.17572 -6.93622 -6.58942
O	 -0.196710156	 0.339759065	 3.463695440
H	 -0.088820156	 0.961718065	 4.185014440
H	 -0.943049156	 0.677300065	 2.940247440
P	 -0.330456000	 0.164634000	 0.264146000
O	 1.207781000	 0.080239000	 0.653429000
O	 -0.409690000	 1.498144000	 -0.614191000
O	 -1.256717000	 0.048350000	 1.408031000
O	 -0.596943000	 -0.936715000	 -0.851177000
H	 -0.273362000	 2.285121000	 -0.076063000
H	 0.051386000	 -0.902002000	 -1.562754000
H	 1.287548000	 -0.331858000	 1.545247000
