11
0  1  0  1  0  1   3   8 -6.77123 -5.39290 -5.52741 -6.90574 -5.62573 -6.39761 -0.84279 -0.86661 -0.94217 -6.63085 -42.66254 69.95754 -23.01346 -10.91238
O	 0.715640000	 -1.020197000	 3.076516000
H	 0.875518000	 -0.705004000	 3.967508000
H	 -0.187800000	 -0.734731000	 2.859123000
P	 0.327377434	 0.990572546	 0.947711706
O	 1.668601434	 0.667259546	 1.736015706
O	 0.433933434	 2.563191546	 0.680286706
O	 -0.899702566	 0.494118546	 1.601747706
O	 0.500727434	 0.430001546	 -0.530002294
H	 0.339788434	 3.068014546	 1.495019706
H	 1.335009434	 0.699857546	 -0.928785294
H	 1.493985434	 -0.064089454	 2.373326706
