11
0  1  0  1  0  1   3   8  5.85751  6.96044  6.70430  5.60138  6.64124  6.01645 11.14866 11.14065 11.08467  6.33455 -26.37555 59.62091 -18.25155 -8.65926
O	 1.756614938	 -0.313196057	 2.832835988
H	 2.214218938	 0.245133943	 3.463423988
H	 0.811000938	 -0.128661057	 2.962120988
P	 -0.330456000	 0.164634000	 0.264146000
O	 1.207781000	 0.080239000	 0.653429000
O	 -0.409690000	 1.498144000	 -0.614191000
O	 -1.256717000	 0.048350000	 1.408031000
O	 -0.596943000	 -0.936715000	 -0.851177000
H	 -0.273362000	 2.285121000	 -0.076063000
H	 0.051386000	 -0.902002000	 -1.562754000
H	 1.287548000	 -0.331858000	 1.545247000
