11
0  1  0  1  0  1   3   8 -11.32799 -10.53008 -10.51282 -11.31073 -10.56946 -11.01960 -7.86481 -7.87328 -7.92446 -10.50496 -22.73691 28.15402 -9.55609 -6.36598
O	 0.715640000	 -1.020197000	 3.076516000
H	 0.875518000	 -0.705004000	 3.967508000
H	 -0.187800000	 -0.734731000	 2.859123000
P	 0.897411643	 -0.596584831	 -0.027358365
O	 2.146645643	 -0.865424831	 0.917086635
O	 1.491532643	 0.379341169	 -1.145656365
O	 -0.320190357	 -0.155769831	 0.681924635
O	 0.660730643	 -1.914447831	 -0.884766365
H	 1.689657643	 1.250568169	 -0.786199365
H	 1.472108643	 -2.238228831	 -1.290609365
H	 1.826232643	 -0.982991831	 1.841770635
