11
0  1  0  1  0  1   3   8 -13.73718 -13.04900 -12.97545 -13.66364 -13.04424 -13.43182 -10.60642 -10.61518 -10.68509 -12.85641 -19.83499 19.68380 -7.30506 -5.40016
O	 0.715640000	 -1.020197000	 3.076516000
H	 0.875518000	 -0.705004000	 3.967508000
H	 -0.187800000	 -0.734731000	 2.859123000
P	 -0.301680449	 0.199267777	 0.187100200
O	 1.236556551	 0.114872777	 0.576383200
O	 -0.380914449	 1.532777777	 -0.691236800
O	 -1.227941449	 0.082983777	 1.330985200
O	 -0.568167449	 -0.902081223	 -0.928222800
H	 -0.244586449	 2.319754777	 -0.153108800
H	 0.080161551	 -0.867368223	 -1.639799800
H	 1.316323551	 -0.297224223	 1.468201200
