11
0  1  0  1  0  1   3   8 -9.18918 -8.81392 -8.69787 -9.07313 -8.75794 -8.95606 -7.02738 -7.02765 -7.06533 -8.66833 -10.22567  8.09880 -3.29509 -3.24637
O	 0.715640000	 -1.020197000	 3.076516000
H	 0.875518000	 -0.705004000	 3.967508000
H	 -0.187800000	 -0.734731000	 2.859123000
P	 -1.583532248	 0.745232288	 0.824233566
O	 -0.028926248	 1.042891288	 0.684825566
O	 -2.255114248	 2.153981288	 0.477233566
O	 -1.970261248	 0.103008288	 2.096217566
O	 -2.017505248	 -0.106711712	 -0.446115434
H	 -2.090744248	 2.804319288	 1.168278566
H	 -1.704007248	 0.279622288	 -1.270944434
H	 0.460608752	 0.485515288	 1.333835566
