11
0  1  0  1  0  1   3   8 -11.21416 -10.20203 -10.17246 -11.18459 -10.26124 -10.81855 -6.56165 -6.58193 -6.63764 -10.55612 -30.59102 41.98464 -13.85862 -8.09112
O	 0.715640000	 -1.020197000	 3.076516000
H	 0.875518000	 -0.705004000	 3.967508000
H	 -0.187800000	 -0.734731000	 2.859123000
P	 0.424670613	 1.110085990	 0.859813045
O	 1.765894613	 0.786772990	 1.648117045
O	 0.531226613	 2.682704990	 0.592388045
O	 -0.802409387	 0.613631990	 1.513849045
O	 0.598020613	 0.549514990	 -0.617900955
H	 0.437081613	 3.187527990	 1.407121045
H	 1.432302613	 0.819370990	 -1.016683955
H	 1.591278613	 0.055423990	 2.285428045
