11
0  1  0  1  0  1   3   8 -2.78421 -2.61627 -2.56767 -2.73562 -2.59859 -2.67930 -1.41824 -1.42082 -1.42436 -2.62365 -3.49248  3.40440 -0.80388 -1.73169
O	 -0.753306965	 0.591615464	 4.183113604
H	 -0.645416965	 1.213574464	 4.904432604
H	 -1.499645965	 0.929156464	 3.659665604
P	 -0.330456000	 0.164634000	 0.264146000
O	 1.207781000	 0.080239000	 0.653429000
O	 -0.409690000	 1.498144000	 -0.614191000
O	 -1.256717000	 0.048350000	 1.408031000
O	 -0.596943000	 -0.936715000	 -0.851177000
H	 -0.273362000	 2.285121000	 -0.076063000
H	 0.051386000	 -0.902002000	 -1.562754000
H	 1.287548000	 -0.331858000	 1.545247000
