11
0  1  0  1  0  1   3   8 -1.60246 -1.29713 -1.13700 -1.44232 -1.17141 -1.33076  0.31493  0.31544  0.30898 -1.30265 -6.36797  9.56276 -1.58112 -2.91632
O	 -1.375174783	 -2.259823510	 2.725441214
H	 -1.603306783	 -2.196786510	 3.654287214
H	 -2.088701783	 -1.799921510	 2.251813214
P	 -0.330456000	 0.164634000	 0.264146000
O	 1.207781000	 0.080239000	 0.653429000
O	 -0.409690000	 1.498144000	 -0.614191000
O	 -1.256717000	 0.048350000	 1.408031000
O	 -0.596943000	 -0.936715000	 -0.851177000
H	 -0.273362000	 2.285121000	 -0.076063000
H	 0.051386000	 -0.902002000	 -1.562754000
H	 1.287548000	 -0.331858000	 1.545247000
