11
0  1  0  1  0  1   3   8 -3.40183 -3.02234 -2.98332 -3.36281 -3.03933 -3.23322 -0.87780 -0.88349 -0.89979 -2.87828 -8.75114 11.60668 -2.28530 -3.44853
O	 -0.475008560	 0.465687264	 3.823404522
H	 -0.367118560	 1.087646264	 4.544723522
H	 -1.221347560	 0.803228264	 3.299956522
P	 -0.330456000	 0.164634000	 0.264146000
O	 1.207781000	 0.080239000	 0.653429000
O	 -0.409690000	 1.498144000	 -0.614191000
O	 -1.256717000	 0.048350000	 1.408031000
O	 -0.596943000	 -0.936715000	 -0.851177000
H	 -0.273362000	 2.285121000	 -0.076063000
H	 0.051386000	 -0.902002000	 -1.562754000
H	 1.287548000	 -0.331858000	 1.545247000
