11
0  1  0  1  0  1   3   8 -11.82372 -11.17521 -11.03065 -11.67916 -11.10124 -11.45789 -8.68602 -8.69761 -8.75104 -11.27197 -18.99494 19.65002 -6.70466 -5.22240
O	 0.715640000	 -1.020197000	 3.076516000
H	 0.875518000	 -0.705004000	 3.967508000
H	 -0.187800000	 -0.734731000	 2.859123000
P	 0.570610382	 1.289356154	 0.727965052
O	 1.911834382	 0.966043154	 1.516269052
O	 0.677166382	 2.861975154	 0.460540052
O	 -0.656469618	 0.792902154	 1.382001052
O	 0.743960382	 0.728785154	 -0.749748948
H	 0.583021382	 3.366798154	 1.275273052
H	 1.578242382	 0.998641154	 -1.148531948
H	 1.737218382	 0.234694154	 2.153580052
