11
0  1  0  1  0  1   3   8 -11.93991 -11.06760 -10.98421 -11.85651 -11.06722 -11.54659 -7.84470 -7.86226 -7.91691 -11.26093 -26.01017 32.56778 -10.83457 -6.98397
O	 0.715640000	 -1.020197000	 3.076516000
H	 0.875518000	 -0.705004000	 3.967508000
H	 -0.187800000	 -0.734731000	 2.859123000
P	 0.473317202	 1.169842711	 0.815863714
O	 1.814541202	 0.846529711	 1.604167714
O	 0.579873202	 2.742461711	 0.548438714
O	 -0.753762798	 0.673388711	 1.469899714
O	 0.646667202	 0.609271711	 -0.661850286
H	 0.485728202	 3.247284711	 1.363171714
H	 1.480949202	 0.879127711	 -1.060633286
H	 1.639925202	 0.115180711	 2.241478714
