11
0  1  0  1  0  1   3   8 -1.56874 -1.46134 -1.35559 -1.46299 -1.37227 -1.42543 -0.72055 -0.72188 -0.72356 -1.48705 -1.74959  1.95265 -0.48223 -1.20788
O	 -1.818961914	 -2.581151095	 2.922140249
H	 -2.047093914	 -2.518114095	 3.850986249
H	 -2.532488914	 -2.121249095	 2.448512249
P	 -0.330456000	 0.164634000	 0.264146000
O	 1.207781000	 0.080239000	 0.653429000
O	 -0.409690000	 1.498144000	 -0.614191000
O	 -1.256717000	 0.048350000	 1.408031000
O	 -0.596943000	 -0.936715000	 -0.851177000
H	 -0.273362000	 2.285121000	 -0.076063000
H	 0.051386000	 -0.902002000	 -1.562754000
H	 1.287548000	 -0.331858000	 1.545247000
