11
0  1  0  1  0  1   3   8 -11.32237 -10.76622 -10.60899 -11.16514 -10.67343 -10.97834 -8.59139 -8.60014 -8.64908 -10.86259 -16.31745 15.28187 -5.30452 -4.52249
O	 0.715640000	 -1.020197000	 3.076516000
H	 0.875518000	 -0.705004000	 3.967508000
H	 -0.187800000	 -0.734731000	 2.859123000
P	 0.619256971	 1.349112876	 0.684015721
O	 1.960480971	 1.025799876	 1.472319721
O	 0.725812971	 2.921731876	 0.416590721
O	 -0.607823029	 0.852658876	 1.338051721
O	 0.792606971	 0.788541876	 -0.793698279
H	 0.631667971	 3.426554876	 1.231323721
H	 1.626888971	 1.058397876	 -1.192481279
H	 1.785864971	 0.294450876	 2.109630721
