11
0  1  0  1  0  1   3   8 -9.69873 -9.04487 -8.94831 -9.60217 -9.03394 -9.39543 -5.98846 -6.00484 -6.08303 -8.75845 -15.24026 18.43990 -6.71015 -5.24793
O	 0.715640000	 -1.020197000	 3.076516000
H	 0.875518000	 -0.705004000	 3.967508000
H	 -0.187800000	 -0.734731000	 2.859123000
P	 -1.548755260	 0.539907885	 1.061871807
O	 0.005850740	 0.837566885	 0.922463807
O	 -2.220337260	 1.948656885	 0.714871807
O	 -1.935484260	 -0.102316115	 2.333855807
O	 -1.982728260	 -0.312036115	 -0.208477193
H	 -2.055967260	 2.598994885	 1.405916807
H	 -1.669230260	 0.074297885	 -1.033306193
H	 0.495385740	 0.280190885	 1.571473807
