11
0  1  0  1  0  1   3   8  3.63540  5.15033  4.85247  3.33754  4.73300  3.88186 11.89847 11.85981 11.75458  4.53009 -33.34905 72.94895 -23.15811 -11.91171
O	 0.715640000	 -1.020197000	 3.076516000
H	 0.875518000	 -0.705004000	 3.967508000
H	 -0.187800000	 -0.734731000	 2.859123000
P	 -1.490793613	 0.197700547	 1.457935542
O	 0.063812387	 0.495359547	 1.318527542
O	 -2.162375613	 1.606449547	 1.110935542
O	 -1.877522613	 -0.444523453	 2.729919542
O	 -1.924766613	 -0.654243453	 0.187586542
H	 -1.998005613	 2.256787547	 1.801980542
H	 -1.611268613	 -0.267909453	 -0.637242458
H	 0.553347387	 -0.062016453	 1.967537542
