11
0  1  0  1  0  1   3   8 -11.46913 -10.78559 -10.72994 -11.41349 -10.78197 -11.16839 -8.44872 -8.45522 -8.50577 -10.72198 -19.38975 21.60088 -7.44380 -5.48931
O	 0.715640000	 -1.020197000	 3.076516000
H	 0.875518000	 -0.705004000	 3.967508000
H	 -0.187800000	 -0.734731000	 2.859123000
P	 0.955863887	 -0.594626665	 -0.092344963
O	 2.205097887	 -0.863466665	 0.852100037
O	 1.549984887	 0.381299335	 -1.210642963
O	 -0.261738113	 -0.153811665	 0.616938037
O	 0.719182887	 -1.912489665	 -0.949752963
H	 1.748109887	 1.252526335	 -0.851185963
H	 1.530560887	 -2.236270665	 -1.355595963
H	 1.884684887	 -0.981033665	 1.776784037
