11
0  1  0  1  0  1   3   8 -11.54777 -11.04359 -10.96585 -11.47004 -11.02279 -11.30348 -9.26441 -9.26719 -9.31964 -10.74586 -13.43719 11.20228 -4.46971 -4.04124
O	 0.715640000	 -1.020197000	 3.076516000
H	 0.875518000	 -0.705004000	 3.967508000
H	 -0.187800000	 -0.734731000	 2.859123000
P	 -1.229456181	 -0.951816663	 0.208520661
O	 0.355270819	 -0.985512663	 0.097421661
O	 -1.662286181	 -0.062404663	 -1.047508339
O	 -1.739863181	 -0.549476663	 1.534250661
O	 -1.765539181	 -2.378478663	 -0.244448339
H	 -1.411898181	 0.860226337	 -0.931076339
H	 -1.377408181	 -2.668366663	 -1.077032339
H	 0.736581819	 -1.023160663	 1.005557661
