11
0  1  0  1  0  1   3   8 -3.21483 -2.39892 -2.47217 -3.28809 -2.53216 -2.98605  1.55197  1.54374  1.50375 -2.33439 -21.62566 37.24644 -11.28075 -6.67442
O	 1.511359225	 -1.675909093	 2.295275154
H	 1.822112225	 -1.681007093	 3.202017154
H	 0.544537225	 -1.593259093	 2.353401154
P	 -0.330456000	 0.164634000	 0.264146000
O	 1.207781000	 0.080239000	 0.653429000
O	 -0.409690000	 1.498144000	 -0.614191000
O	 -1.256717000	 0.048350000	 1.408031000
O	 -0.596943000	 -0.936715000	 -0.851177000
H	 -0.273362000	 2.285121000	 -0.076063000
H	 0.051386000	 -0.902002000	 -1.562754000
H	 1.287548000	 -0.331858000	 1.545247000
