11
0  1  0  1  0  1   3   8 -6.89406 -6.44081 -6.36567 -6.81892 -6.40944 -6.66143 -4.00749 -4.00753 -4.04369 -6.24222 -11.82807 13.96090 -4.56405 -3.81101
O	 1.553323830	 -1.927918673	 2.435905433
H	 1.864076830	 -1.933016673	 3.342647433
H	 0.586501830	 -1.845268673	 2.494031433
P	 -0.330456000	 0.164634000	 0.264146000
O	 1.207781000	 0.080239000	 0.653429000
O	 -0.409690000	 1.498144000	 -0.614191000
O	 -1.256717000	 0.048350000	 1.408031000
O	 -0.596943000	 -0.936715000	 -0.851177000
H	 -0.273362000	 2.285121000	 -0.076063000
H	 0.051386000	 -0.902002000	 -1.562754000
H	 1.287548000	 -0.331858000	 1.545247000
