11
0  1  0  1  0  1   3   8 -13.99442 -13.19662 -13.15418 -13.95197 -13.22939 -13.67801 -10.37163 -10.38467 -10.45785 -12.97558 -22.84968 25.37227 -9.24977 -6.24840
O	 0.715640000	 -1.020197000	 3.076516000
H	 0.875518000	 -0.705004000	 3.967508000
H	 -0.187800000	 -0.734731000	 2.859123000
P	 -0.330627572	 0.164427498	 0.264605381
O	 1.207609428	 0.080032498	 0.653888381
O	 -0.409861572	 1.497937498	 -0.613731619
O	 -1.256888572	 0.048143498	 1.408490381
O	 -0.597114572	 -0.936921502	 -0.850717619
H	 -0.273533572	 2.284914498	 -0.075603619
H	 0.051214428	 -0.902208502	 -1.562294619
H	 1.287376428	 -0.332064502	 1.545706381
