11
0  1  0  1  0  1   3   8 -5.82733 -5.55375 -5.46585 -5.73943 -5.50244 -5.65070 -4.32220 -4.32245 -4.34912 -5.43711 -6.58703  5.38191 -2.02649 -2.20549
O	 1.991148407	 -0.303865085	 3.476630482
H	 2.448752407	 0.254464915	 4.107218482
H	 1.045534407	 -0.119330085	 3.605915482
P	 -0.330456000	 0.164634000	 0.264146000
O	 1.207781000	 0.080239000	 0.653429000
O	 -0.409690000	 1.498144000	 -0.614191000
O	 -1.256717000	 0.048350000	 1.408031000
O	 -0.596943000	 -0.936715000	 -0.851177000
H	 -0.273362000	 2.285121000	 -0.076063000
H	 0.051386000	 -0.902002000	 -1.562754000
H	 1.287548000	 -0.331858000	 1.545247000
