11
0  1  0  1  0  1   3   8 -12.07779 -11.32362 -11.20312 -11.95729 -11.28005 -11.69476 -8.48068 -8.49530 -8.55025 -11.44604 -22.23065 25.36315 -8.53090 -6.04763
O	 0.715640000	 -1.020197000	 3.076516000
H	 0.875518000	 -0.705004000	 3.967508000
H	 -0.187800000	 -0.734731000	 2.859123000
P	 0.521380208	 1.228882567	 0.772441617
O	 1.862604208	 0.905569567	 1.560745617
O	 0.627936208	 2.801501567	 0.505016617
O	 -0.705699792	 0.732428567	 1.426477617
O	 0.694730208	 0.668311567	 -0.705272383
H	 0.533791208	 3.306324567	 1.319749617
H	 1.529012208	 0.938167567	 -1.104055383
H	 1.687988208	 0.174220567	 2.198056617
