16
0  1  0  1  0  1   8   8 -9.31635 -8.72739 -8.71177 -9.30073 -8.78608 -9.09324 -5.06780 -5.07621 -5.09903 -8.39033 -16.18363 23.47288 -9.55890 -6.12068
P	 -0.159057715	 0.492715348	 5.848652014
O	 0.984375285	 0.841345348	 6.906722014
O	 -0.069291715	 1.693097348	 4.737592014
O	 -1.512697715	 0.401322348	 6.422631014
O	 0.514016285	 -0.693693652	 5.087938014
H	 -0.810914715	 2.291596348	 4.888393014
H	 0.129786285	 -0.879227652	 4.190294014
H	 0.575316285	 1.007668348	 7.762968014
P	 -0.437714000	 -1.539576000	 1.752563000
O	 0.421706000	 -2.535517000	 0.852024000
O	 0.351177000	 -0.202945000	 1.476414000
O	 -0.634848000	 -1.940523000	 3.163063000
O	 -1.854441000	 -1.407668000	 1.028738000
H	 0.256514000	 0.425959000	 2.223037000
H	 -1.767406000	 -1.140166000	 0.106787000
H	 0.247805000	 -3.452721000	 1.091950000
