16
0  1  0  1  0  1   8   8 -15.67998 -14.67188 -14.64363 -15.65173 -14.72175 -15.27730 -10.66689 -10.68006 -10.72249 -14.80158 -31.84146 47.78846 -20.48182 -10.26676
P	 -1.707896549	 0.031374563	 4.964909676
O	 -1.258222549	 0.345059563	 6.464205676
O	 -1.144592549	 1.299407563	 4.094157676
O	 -3.161111549	 -0.131040437	 4.786206676
O	 -0.684225549	 -1.087916437	 4.592663676
H	 -1.894509549	 1.867557563	 3.880200676
H	 -0.563472549	 -1.228411437	 3.616190676
H	 -2.045557549	 0.447742563	 7.009832676
P	 -0.034539000	 -0.218724000	 1.198361000
O	 0.993977000	 -0.661093000	 0.063488000
O	 0.696451000	 1.080589000	 1.710835000
O	 -0.383498000	 -1.249650000	 2.200632000
O	 -1.353243000	 0.254368000	 0.433089000
H	 0.467834000	 1.271443000	 2.645306000
H	 -1.166891000	 0.933211000	 -0.225371000
H	 0.849665000	 -1.579146000	 -0.192288000
