16
0  1  0  1  0  1   8   8 -12.08665 -11.24847 -11.26171 -12.09989 -11.32466 -11.78174 -8.41979 -8.43159 -8.45269 -11.15559 -27.34637 43.53084 -18.71114 -8.62892
P	 -0.034755899	 -1.479252541	 5.506216785
O	 1.165537101	 -1.669137541	 6.541462785
O	 -0.008910899	 0.116450459	 5.136767785
O	 -1.354069899	 -1.882880541	 6.022588785
O	 0.596409101	 -2.111080541	 4.224926785
H	 -0.741783899	 0.539211459	 5.600574785
H	 0.162870101	 -1.837360541	 3.373492785
H	 0.804742101	 -1.961983541	 7.385392785
P	 -0.034539000	 -0.218724000	 1.198361000
O	 0.993977000	 -0.661093000	 0.063488000
O	 0.696451000	 1.080589000	 1.710835000
O	 -0.383498000	 -1.249650000	 2.200632000
O	 -1.353243000	 0.254368000	 0.433089000
H	 0.467834000	 1.271443000	 2.645306000
H	 -1.166891000	 0.933211000	 -0.225371000
H	 0.849665000	 -1.579146000	 -0.192288000
