16
0  1  0  1  0  1   8   8 -19.51359 -18.44940 -18.44739 -19.51158 -18.54212 -19.13091 -13.60184 -13.62725 -13.69439 -18.05341 -32.55132 44.27706 -19.37119 -10.40796
P	 -0.034539000	 -0.218724000	 1.198361000
O	 0.993977000	 -0.661093000	 0.063488000
O	 0.696451000	 1.080589000	 1.710835000
O	 -0.383498000	 -1.249650000	 2.200632000
O	 -1.353243000	 0.254368000	 0.433089000
H	 0.467834000	 1.271443000	 2.645306000
H	 -1.166891000	 0.933211000	 -0.225371000
H	 0.849665000	 -1.579146000	 -0.192288000
P	 -0.206938435	 0.215825634	 5.355956444
O	 0.936494565	 0.564455634	 6.414026444
O	 -0.117172435	 1.416207634	 4.244896444
O	 -1.560578435	 0.124432634	 5.929935444
O	 0.466135565	 -0.970583366	 4.595242444
H	 -0.858795435	 2.014706634	 4.395697444
H	 0.081905565	 -1.156117366	 3.697598444
H	 0.527435565	 0.730778634	 7.270272444
