16
0  1  0  1  0  1   8   8 -17.01596 -16.32561 -16.20605 -16.89641 -16.27313 -16.64693 -13.31578 -13.32598 -13.35790 -16.04252 -22.94729 26.27294 -12.03852 -7.32965
P	 -1.807474388	 0.034108070	 5.124043584
O	 -1.357800388	 0.347793071	 6.623339584
O	 -1.244170388	 1.302141071	 4.253291584
O	 -3.260689388	 -0.128306930	 4.945340584
O	 -0.783803388	 -1.085182929	 4.751797584
H	 -1.994087388	 1.870291070	 4.039334584
H	 -0.663050388	 -1.225677929	 3.775324584
H	 -2.145135388	 0.450476070	 7.168966584
P	 -0.034539000	 -0.218724000	 1.198361000
O	 0.993977000	 -0.661093000	 0.063488000
O	 0.696451000	 1.080589000	 1.710835000
O	 -0.383498000	 -1.249650000	 2.200632000
O	 -1.353243000	 0.254368000	 0.433089000
H	 0.467834000	 1.271443000	 2.645306000
H	 -1.166891000	 0.933211000	 -0.225371000
H	 0.849665000	 -1.579146000	 -0.192288000
