16
0  1  0  1  0  1   8   8 -13.95130 -13.41004 -13.31217 -13.85343 -13.36809 -13.65778 -11.43955 -11.45205 -11.47364 -12.95282 -18.39577 20.76813 -9.62334 -5.70184
P	 -0.030887943	 -1.576069379	 5.709790261
O	 1.169405057	 -1.765954379	 6.745036261
O	 -0.005042943	 0.019633621	 5.340341261
O	 -1.350201943	 -1.979697379	 6.226162261
O	 0.600277057	 -2.207897379	 4.428500261
H	 -0.737915943	 0.442394621	 5.804148261
H	 0.166738057	 -1.934177379	 3.577066261
H	 0.808610057	 -2.058800379	 7.588966261
P	 -0.034539000	 -0.218724000	 1.198361000
O	 0.993977000	 -0.661093000	 0.063488000
O	 0.696451000	 1.080589000	 1.710835000
O	 -0.383498000	 -1.249650000	 2.200632000
O	 -1.353243000	 0.254368000	 0.433089000
H	 0.467834000	 1.271443000	 2.645306000
H	 -1.166891000	 0.933211000	 -0.225371000
H	 0.849665000	 -1.579146000	 -0.192288000
