16
0  1  0  1  0  1   8   8 -16.62516 -16.04954 -15.90451 -16.48012 -15.96592 -16.27695 -13.46773 -13.47596 -13.50857 -15.73602 -19.62902 19.37639 -9.27435 -6.20903
P	 -1.857263308	 0.035474824	 5.203610538
O	 -1.407589308	 0.349159824	 6.702906538
O	 -1.293959308	 1.303507824	 4.332858538
O	 -3.310478308	 -0.126940176	 5.024907538
O	 -0.833592308	 -1.083816176	 4.831364538
H	 -2.043876308	 1.871657824	 4.118901538
H	 -0.712839308	 -1.224311176	 3.854891538
H	 -2.194924308	 0.451842824	 7.248533538
P	 -0.034539000	 -0.218724000	 1.198361000
O	 0.993977000	 -0.661093000	 0.063488000
O	 0.696451000	 1.080589000	 1.710835000
O	 -0.383498000	 -1.249650000	 2.200632000
O	 -1.353243000	 0.254368000	 0.433089000
H	 0.467834000	 1.271443000	 2.645306000
H	 -1.166891000	 0.933211000	 -0.225371000
H	 0.849665000	 -1.579146000	 -0.192288000
