16
0  1  0  1  0  1   8   8 -9.32213 -9.01470 -8.90017 -9.20761 -8.95017 -9.10905 -7.09422 -7.10828 -7.13210 -8.81188 -9.56545  7.76046 -3.52782 -3.47907
P	 -0.210067000	 0.222059000	 5.436956000
O	 0.933366000	 0.570689000	 6.495026000
O	 -0.120301000	 1.422441000	 4.325896000
O	 -1.563707000	 0.130666000	 6.010935000
O	 0.463007000	 -0.964350000	 4.676242000
H	 -0.861924000	 2.020940000	 4.476697000
H	 0.078777000	 -1.149884000	 3.778598000
H	 0.524307000	 0.737012000	 7.351272000
P	 0.484400927	 1.528481003	 0.704150454
O	 1.674885927	 1.683049003	 -0.344814546
O	 1.060188927	 2.414728003	 1.873861454
O	 0.077119927	 0.143811003	 1.029635454
O	 -0.753702073	 2.319804003	 0.080176454
H	 0.702952927	 2.132050003	 2.742425454
H	 -0.528698073	 3.231098003	 -0.139005546
H	 1.622937927	 1.003389003	 -1.026306546
