16
0  1  0  1  0  1   8   8 -15.86234 -15.38092 -15.22181 -15.70323 -15.27778 -15.53774 -13.18069 -13.18696 -13.22014 -15.08633 -16.89248 14.24665 -7.17084 -5.26965
P	 -1.907052227	 0.036841578	 5.283177493
O	 -1.457378227	 0.350526578	 6.782473493
O	 -1.343748227	 1.304874578	 4.412425493
O	 -3.360267227	 -0.125573422	 5.104474493
O	 -0.883381227	 -1.082449422	 4.910931493
H	 -2.093665227	 1.873024578	 4.198468493
H	 -0.762628227	 -1.222944422	 3.934458493
H	 -2.244713227	 0.453209578	 7.328100493
P	 -0.034539000	 -0.218724000	 1.198361000
O	 0.993977000	 -0.661093000	 0.063488000
O	 0.696451000	 1.080589000	 1.710835000
O	 -0.383498000	 -1.249650000	 2.200632000
O	 -1.353243000	 0.254368000	 0.433089000
H	 0.467834000	 1.271443000	 2.645306000
H	 -1.166891000	 0.933211000	 -0.225371000
H	 0.849665000	 -1.579146000	 -0.192288000
