16
0  1  0  1  0  1   8   8 -5.49165 -5.33101 -5.23823 -5.39886 -5.28015 -5.35322 -3.81421 -3.81652 -3.82705 -5.33854 -4.46958  2.29793 -1.21432 -1.95258
P	 -0.347578000	 1.693870000	 4.914560000
O	 0.753620000	 2.521078000	 5.721768000
O	 -0.170023000	 2.182287000	 3.361064000
O	 -1.729182000	 1.902038000	 5.381445000
O	 0.326368000	 0.285307000	 4.882518000
H	 -0.900325000	 2.777526000	 3.152985000
H	 -0.019748000	 -0.321673000	 4.175694000
H	 0.309109000	 3.091909000	 6.357938000
P	 0.054319637	 -0.814823798	 0.326064427
O	 1.082835637	 -1.257192798	 -0.808808573
O	 0.785309637	 0.484489202	 0.838538427
O	 -0.294639363	 -1.845749798	 1.328335427
O	 -1.264384363	 -0.341731798	 -0.439207573
H	 0.556692637	 0.675343202	 1.773009427
H	 -1.078032363	 0.337111202	 -1.097667573
H	 0.938523637	 -2.175245798	 -1.064584573
