16
0  1  0  1  0  1   8   8 -8.60182 -8.28668 -8.17836 -8.49350 -8.24344 -8.39770 -6.07280 -6.08393 -6.10691 -8.06850 -8.57230  7.83376 -3.91103 -3.41893
P	 -0.124413354	 0.676539061	 6.128266701
O	 1.019019646	 1.025169061	 7.186336701
O	 -0.034647354	 1.876921061	 5.017206701
O	 -1.478053354	 0.585146061	 6.702245701
O	 0.548660646	 -0.509869939	 5.367552701
H	 -0.776270354	 2.475420061	 5.168007701
H	 0.164430646	 -0.695403939	 4.469908701
H	 0.609960646	 1.191492061	 8.042582701
P	 -0.437714000	 -1.539576000	 1.752563000
O	 0.421706000	 -2.535517000	 0.852024000
O	 0.351177000	 -0.202945000	 1.476414000
O	 -0.634848000	 -1.940523000	 3.163063000
O	 -1.854441000	 -1.407668000	 1.028738000
H	 0.256514000	 0.425959000	 2.223037000
H	 -1.767406000	 -1.140166000	 0.106787000
H	 0.247805000	 -3.452721000	 1.091950000
