16
0  1  0  1  0  1   8   8 11.85041 14.21590 13.47175 11.10626 13.35207 11.98550 23.36078 23.32727 23.16559  9.88509 -67.05482 155.83786 -57.70373 -21.19422
P	 1.326700000	 0.355123000	 5.147637000
O	 2.853576000	 0.683918000	 5.477847000
O	 0.884506000	 1.503777000	 4.066672000
O	 0.435341000	 0.359240000	 6.320500000
O	 1.500843000	 -0.894962000	 4.227723000
H	 0.332139000	 2.146641000	 4.527718000
H	 0.716565000	 -1.095268000	 3.651004000
H	 2.928679000	 0.905864000	 6.412325000
P	 0.129045420	 -0.177015519	 1.508086559
O	 1.157561420	 -0.619384519	 0.373213559
O	 0.860035420	 1.122297481	 2.020560559
O	 -0.219913580	 -1.207941519	 2.510357559
O	 -1.189658580	 0.296076481	 0.742814559
H	 0.631418420	 1.313151481	 2.955031559
H	 -1.003306580	 0.974919481	 0.084354559
H	 1.013249420	 -1.537437519	 0.117437559
