16
0  1  0  1  0  1   8   8  9.95664 12.17523 11.87069  9.65210 11.76535 10.48035 18.65615 18.63311 18.48311  5.73528 -61.80541 147.95878 -59.79033 -20.62775
P	 -1.508740872	 0.025907549	 4.646641859
O	 -1.059066872	 0.339592549	 6.145937859
O	 -0.945436872	 1.293940549	 3.775889859
O	 -2.961955872	 -0.136507451	 4.467938859
O	 -0.485069872	 -1.093383451	 4.274395859
H	 -1.695353872	 1.862090549	 3.561932859
H	 -0.364316872	 -1.233878451	 3.297922859
H	 -1.846401872	 0.442275549	 6.691564859
P	 -0.034539000	 -0.218724000	 1.198361000
O	 0.993977000	 -0.661093000	 0.063488000
O	 0.696451000	 1.080589000	 1.710835000
O	 -0.383498000	 -1.249650000	 2.200632000
O	 -1.353243000	 0.254368000	 0.433089000
H	 0.467834000	 1.271443000	 2.645306000
H	 -1.166891000	 0.933211000	 -0.225371000
H	 0.849665000	 -1.579146000	 -0.192288000
