16
0  1  0  1  0  1   8   8 -9.22478 -8.83686 -8.74386 -9.13179 -8.81215 -9.00779 -6.21047 -6.22084 -6.24655 -8.55838 -10.51342 11.34180 -5.24316 -4.14360
P	 -0.135961474	 0.615264490	 6.035061805
O	 1.007471526	 0.963894490	 7.093131805
O	 -0.046195474	 1.815646490	 4.924001805
O	 -1.489601474	 0.523871490	 6.609040805
O	 0.537112526	 -0.571144510	 5.274347805
H	 -0.787818474	 2.414145490	 5.074802805
H	 0.152882526	 -0.756678510	 4.376703805
H	 0.598412526	 1.130217490	 7.949377805
P	 -0.437714000	 -1.539576000	 1.752563000
O	 0.421706000	 -2.535517000	 0.852024000
O	 0.351177000	 -0.202945000	 1.476414000
O	 -0.634848000	 -1.940523000	 3.163063000
O	 -1.854441000	 -1.407668000	 1.028738000
H	 0.256514000	 0.425959000	 2.223037000
H	 -1.767406000	 -1.140166000	 0.106787000
H	 0.247805000	 -3.452721000	 1.091950000
