16
0  1  0  1  0  1   8   8 -8.70731 -7.21841 -7.33657 -8.82547 -7.42623 -8.26798 -2.04925 -2.06537 -2.14315 -9.00229 -44.63888 85.24046 -35.11010 -14.49379
P	 -1.608318711	 0.028641056	 4.805775767
O	 -1.158644711	 0.342326056	 6.305071767
O	 -1.045014711	 1.296674056	 3.935023767
O	 -3.061533711	 -0.133773944	 4.627072767
O	 -0.584647711	 -1.090649944	 4.433529767
H	 -1.794931711	 1.864824056	 3.721066767
H	 -0.463894711	 -1.231144944	 3.457056767
H	 -1.945979711	 0.445009056	 6.850698767
P	 -0.034539000	 -0.218724000	 1.198361000
O	 0.993977000	 -0.661093000	 0.063488000
O	 0.696451000	 1.080589000	 1.710835000
O	 -0.383498000	 -1.249650000	 2.200632000
O	 -1.353243000	 0.254368000	 0.433089000
H	 0.467834000	 1.271443000	 2.645306000
H	 -1.166891000	 0.933211000	 -0.225371000
H	 0.849665000	 -1.579146000	 -0.192288000
