16
0  1  0  1  0  1   8   8 -18.43523 -17.18527 -17.26609 -18.51604 -17.36665 -18.05887 -11.73662 -11.76463 -11.83036 -17.00163 -38.06058 57.75818 -24.59355 -12.10569
P	 -0.034539000	 -0.218724000	 1.198361000
O	 0.993977000	 -0.661093000	 0.063488000
O	 0.696451000	 1.080589000	 1.710835000
O	 -0.383498000	 -1.249650000	 2.200632000
O	 -1.353243000	 0.254368000	 0.433089000
H	 0.467834000	 1.271443000	 2.645306000
H	 -1.166891000	 0.933211000	 -0.225371000
H	 0.849665000	 -1.579146000	 -0.192288000
P	 -0.203790991	 0.209554653	 5.274468105
O	 0.939642009	 0.558184653	 6.332538105
O	 -0.114024991	 1.409936653	 4.163408105
O	 -1.557430991	 0.118161653	 5.848447105
O	 0.469283009	 -0.976854347	 4.513754105
H	 -0.855647991	 2.008435653	 4.314209105
H	 0.085053009	 -1.162388347	 3.616110105
H	 0.530583009	 0.724507653	 7.188784105
