16
0  1  0  1  0  1   8   8 -18.58802 -17.92200 -17.78078 -18.44679 -17.85633 -18.22852 -14.61353 -14.62838 -14.70145 -17.50100 -20.89698 19.67445 -9.61281 -6.66566
P	 -0.034539000	 -0.218724000	 1.198361000
O	 0.993977000	 -0.661093000	 0.063488000
O	 0.696451000	 1.080589000	 1.710835000
O	 -0.383498000	 -1.249650000	 2.200632000
O	 -1.353243000	 0.254368000	 0.433089000
H	 0.467834000	 1.271443000	 2.645306000
H	 -1.166891000	 0.933211000	 -0.225371000
H	 0.849665000	 -1.579146000	 -0.192288000
P	 -0.216380767	 0.234638576	 5.600421462
O	 0.927052233	 0.583268576	 6.658491462
O	 -0.126614767	 1.435020576	 4.489361462
O	 -1.570020767	 0.143245576	 6.174400462
O	 0.456693233	 -0.951770424	 4.839707462
H	 -0.868237767	 2.033519576	 4.640162462
H	 0.072463233	 -1.137304424	 3.942063462
H	 0.517993233	 0.749591576	 7.514737462
