16
0  1  0  1  0  1   8   8 -13.45396 -12.89849 -12.77805 -13.33352 -12.83822 -13.14244 -9.87076 -9.87208 -9.91445 -12.61939 -16.78586 16.27162 -6.53396 -5.57119
P	 -0.419864406	 0.304093973	 5.777327520
O	 0.723568594	 0.652723973	 6.835397520
O	 -0.330098406	 1.504475973	 4.666267520
O	 -1.773504406	 0.212700973	 6.351306520
O	 0.253209594	 -0.882315027	 5.016613520
H	 -1.071721406	 2.102974973	 4.817068520
H	 -0.131020406	 -1.067849027	 4.118969520
H	 0.314509594	 0.819046973	 7.691643520
P	 1.342486000	 -0.581669000	 1.623875000
O	 2.789334000	 -1.096197000	 1.195665000
O	 1.740040000	 0.818472000	 2.229471000
O	 0.549884000	 -1.496615000	 2.474630000
O	 0.558043000	 -0.299627000	 0.262428000
H	 1.089698000	 1.111826000	 2.902468000
H	 1.041180000	 0.300141000	 -0.317210000
H	 2.783177000	 -2.047027000	 1.037698000
