16
0  1  0  1  0  1   8   8 -12.03486 -10.28823 -10.59525 -12.34187 -10.70535 -11.68662 -3.54179 -3.57257 -3.65590 -11.37066 -52.43775 97.41859 -39.89873 -16.45278
P	 -0.034539000	 -0.218724000	 1.198361000
O	 0.993977000	 -0.661093000	 0.063488000
O	 0.696451000	 1.080589000	 1.710835000
O	 -0.383498000	 -1.249650000	 2.200632000
O	 -1.353243000	 0.254368000	 0.433089000
H	 0.467834000	 1.271443000	 2.645306000
H	 -1.166891000	 0.933211000	 -0.225371000
H	 0.849665000	 -1.579146000	 -0.192288000
P	 -0.197496103	 0.197012692	 5.111491427
O	 0.945936897	 0.545642692	 6.169561427
O	 -0.107730103	 1.397394692	 4.000431427
O	 -1.551136103	 0.105619692	 5.685470427
O	 0.475577897	 -0.989396308	 4.350777427
H	 -0.849353103	 1.995893692	 4.151232427
H	 0.091347897	 -1.174930308	 3.453133427
H	 0.536877897	 0.711965692	 7.025807427
