16
0  1  0  1  0  1   8   8 -10.32850 -9.85437 -9.77601 -10.25014 -9.83625 -10.08547 -7.11411 -7.13078 -7.15433 -9.56549 -14.24632 16.50568 -6.68516 -5.13969
P	 -0.210067000	 0.222059000	 5.436956000
O	 0.933366000	 0.570689000	 6.495026000
O	 -0.120301000	 1.422441000	 4.325896000
O	 -1.563707000	 0.130666000	 6.010935000
O	 0.463007000	 -0.964350000	 4.676242000
H	 -0.861924000	 2.020940000	 4.476697000
H	 0.078777000	 -1.149884000	 3.778598000
H	 0.524307000	 0.737012000	 7.351272000
P	 0.447055616	 1.437421730	 0.901079231
O	 1.637540616	 1.591989730	 -0.147885769
O	 1.022843616	 2.323668730	 2.070790231
O	 0.039774616	 0.052751730	 1.226564231
O	 -0.791047384	 2.228744730	 0.277105231
H	 0.665607616	 2.040990730	 2.939354231
H	 -0.566043384	 3.140038730	 0.057923231
H	 1.585592616	 0.912329730	 -0.829377769
