16
0  1  0  1  0  1   8   8 -8.23629 -6.72150 -6.86577 -8.38056 -6.98176 -7.82903  0.28677  0.25440  0.16293 -7.79652 -43.64142 78.72825 -28.29277 -14.59058
P	 -0.210067000	 0.222059000	 5.436956000
O	 0.933366000	 0.570689000	 6.495026000
O	 -0.120301000	 1.422441000	 4.325896000
O	 -1.563707000	 0.130666000	 6.010935000
O	 0.463007000	 -0.964350000	 4.676242000
H	 -0.861924000	 2.020940000	 4.476697000
H	 0.078777000	 -1.149884000	 3.778598000
H	 0.524307000	 0.737012000	 7.351272000
P	 -1.312718791	 0.180886992	 1.753852241
O	 -0.983413791	 -0.089417008	 0.217634241
O	 -0.340858791	 1.395010992	 2.011882241
O	 -1.208414791	 -0.985186008	 2.658575241
O	 -2.801879791	 0.755092992	 1.787379241
H	 -0.081984791	 1.448098992	 2.956389241
H	 -2.907881791	 1.522560992	 1.213898241
H	 -1.293283791	 -0.961376008	 -0.052062759
