16
0  1  0  1  0  1   8   8 -12.95500 -11.85902 -11.94970 -13.04568 -12.05073 -12.66016 -6.01327 -6.04208 -6.12321 -11.57259 -30.90755 47.57262 -17.83747 -10.40019
P	 1.326700000	 0.355123000	 5.147637000
O	 2.853576000	 0.683918000	 5.477847000
O	 0.884506000	 1.503777000	 4.066672000
O	 0.435341000	 0.359240000	 6.320500000
O	 1.500843000	 -0.894962000	 4.227723000
H	 0.332139000	 2.146641000	 4.527718000
H	 0.716565000	 -1.095268000	 3.651004000
H	 2.928679000	 0.905864000	 6.412325000
P	 -0.040892603	 -0.220343953	 1.186331290
O	 0.987623397	 -0.662712953	 0.051458290
O	 0.690097397	 1.078969047	 1.698805290
O	 -0.389851603	 -1.251269953	 2.188602290
O	 -1.359596603	 0.252748047	 0.421059290
H	 0.461480397	 1.269823047	 2.633276290
H	 -1.173244603	 0.931591047	 -0.237400710
H	 0.843311397	 -1.580765953	 -0.204317710
