16
0  1  0  1  0  1   8   8 -14.21093 -13.45715 -13.39125 -14.14503 -13.47745 -13.89293 -8.99991 -9.01905 -9.08907 -13.08519 -21.24476 25.72887 -10.17151 -7.39779
P	 1.326700000	 0.355123000	 5.147637000
O	 2.853576000	 0.683918000	 5.477847000
O	 0.884506000	 1.503777000	 4.066672000
O	 0.435341000	 0.359240000	 6.320500000
O	 1.500843000	 -0.894962000	 4.227723000
H	 0.332139000	 2.146641000	 4.527718000
H	 0.716565000	 -1.095268000	 3.651004000
H	 2.928679000	 0.905864000	 6.412325000
P	 -0.125861614	 -0.242008170	 1.025453655
O	 0.902654386	 -0.684377170	 -0.109419345
O	 0.605128386	 1.057304830	 1.537927655
O	 -0.474820614	 -1.272934170	 2.027724655
O	 -1.444565614	 0.231083830	 0.260181655
H	 0.376511386	 1.248158830	 2.472398655
H	 -1.258213614	 0.909926830	 -0.398278345
H	 0.758342386	 -1.602430170	 -0.365195345
