16
0  1  0  1  0  1   8   8 -13.57517 -13.05090 -12.86074 -13.38501 -12.93636 -13.21928 -9.76414 -9.78026 -9.83607 -12.91019 -15.25302 14.64193 -6.53347 -5.76563
P	 -0.210067000	 0.222059000	 5.436956000
O	 0.933366000	 0.570689000	 6.495026000
O	 -0.120301000	 1.422441000	 4.325896000
O	 -1.563707000	 0.130666000	 6.010935000
O	 0.463007000	 -0.964350000	 4.676242000
H	 -0.861924000	 2.020940000	 4.476697000
H	 0.078777000	 -1.149884000	 3.778598000
H	 0.524307000	 0.737012000	 7.351272000
P	 -1.546882962	 0.216578739	 1.287065456
O	 -1.217577962	 -0.053725261	 -0.249152544
O	 -0.575022962	 1.430702739	 1.545095456
O	 -1.442578962	 -0.949494261	 2.191788456
O	 -3.036043962	 0.790784739	 1.320592456
H	 -0.316148962	 1.483790739	 2.489602456
H	 -3.142045962	 1.558252739	 0.747111456
H	 -1.527447962	 -0.925684261	 -0.518849544
