16
0  1  0  1  0  1   8   8 -14.24979 -13.62383 -13.44772 -14.07368 -13.53049 -13.87017 -9.86742 -9.88658 -9.94738 -13.46813 -17.97722 19.51361 -8.29155 -6.71297
P	 -0.210067000	 0.222059000	 5.436956000
O	 0.933366000	 0.570689000	 6.495026000
O	 -0.120301000	 1.422441000	 4.325896000
O	 -1.563707000	 0.130666000	 6.010935000
O	 0.463007000	 -0.964350000	 4.676242000
H	 -0.861924000	 2.020940000	 4.476697000
H	 0.078777000	 -1.149884000	 3.778598000
H	 0.524307000	 0.737012000	 7.351272000
P	 -1.507855600	 0.210630114	 1.364863253
O	 -1.178550600	 -0.059673886	 -0.171354747
O	 -0.535995600	 1.424754114	 1.622893253
O	 -1.403551600	 -0.955442886	 2.269586253
O	 -2.997016600	 0.784836114	 1.398390253
H	 -0.277121600	 1.477842114	 2.567400253
H	 -3.103018600	 1.552304114	 0.824909253
H	 -1.488420600	 -0.931632886	 -0.441051747
