16
0  1  0  1  0  1   8   8 -19.72521 -18.81557 -18.75024 -19.65988 -18.83864 -19.34342 -14.52712 -14.54927 -14.62038 -18.34523 -27.94901 33.85982 -15.29586 -8.96018
P	 -0.034539000	 -0.218724000	 1.198361000
O	 0.993977000	 -0.661093000	 0.063488000
O	 0.696451000	 1.080589000	 1.710835000
O	 -0.383498000	 -1.249650000	 2.200632000
O	 -1.353243000	 0.254368000	 0.433089000
H	 0.467834000	 1.271443000	 2.645306000
H	 -1.166891000	 0.933211000	 -0.225371000
H	 0.849665000	 -1.579146000	 -0.192288000
P	 -0.210085879	 0.222096615	 5.437444783
O	 0.933347121	 0.570726615	 6.495514783
O	 -0.120319879	 1.422478615	 4.326384783
O	 -1.563725879	 0.130703615	 6.011423783
O	 0.462988121	 -0.964312385	 4.676730783
H	 -0.861942879	 2.020977615	 4.477185783
H	 0.078758121	 -1.149846385	 3.779086783
H	 0.524288121	 0.737049615	 7.351760783
