16
0  1  0  1  0  1   8   8  5.85634  8.03282  7.60727  5.43079  7.48179  6.23746 16.77632 16.74190 16.60300  4.11859 -63.18187 133.92093 -46.55519 -20.06528
P	 -0.210067000	 0.222059000	 5.436956000
O	 0.933366000	 0.570689000	 6.495026000
O	 -0.120301000	 1.422441000	 4.325896000
O	 -1.563707000	 0.130666000	 6.010935000
O	 0.463007000	 -0.964350000	 4.676242000
H	 -0.861924000	 2.020940000	 4.476697000
H	 0.078777000	 -1.149884000	 3.778598000
H	 0.524307000	 0.737012000	 7.351272000
P	 -1.234664067	 0.168989743	 1.909447836
O	 -0.905359067	 -0.101314257	 0.373229836
O	 -0.262804067	 1.383113743	 2.167477836
O	 -1.130360067	 -0.997083257	 2.814170836
O	 -2.723825067	 0.743195743	 1.942974836
H	 -0.003930067	 1.436201743	 3.111984836
H	 -2.829827067	 1.510663743	 1.369493836
H	 -1.215229067	 -0.973273257	 0.103532836
