16
0  1  0  1  0  1   8   8 -19.34864 -18.56979 -18.45889 -19.23774 -18.54075 -18.97490 -14.79478 -14.81329 -14.88724 -18.10151 -24.10722 25.83736 -12.10943 -7.72222
P	 -0.034539000	 -0.218724000	 1.198361000
O	 0.993977000	 -0.661093000	 0.063488000
O	 0.696451000	 1.080589000	 1.710835000
O	 -0.383498000	 -1.249650000	 2.200632000
O	 -1.353243000	 0.254368000	 0.433089000
H	 0.467834000	 1.271443000	 2.645306000
H	 -1.166891000	 0.933211000	 -0.225371000
H	 0.849665000	 -1.579146000	 -0.192288000
P	 -0.213233323	 0.228367595	 5.518933123
O	 0.930199677	 0.576997595	 6.577003123
O	 -0.123467323	 1.428749595	 4.407873123
O	 -1.566873323	 0.136974595	 6.092912123
O	 0.459840677	 -0.958041405	 4.758219123
H	 -0.865090323	 2.027248595	 4.558674123
H	 0.075610677	 -1.143575405	 3.860575123
H	 0.521140677	 0.743320595	 7.433249123
