16
0  1  0  1  0  1   8   8 -13.85588 -13.23117 -13.12277 -13.74748 -13.20107 -13.54410 -9.36392 -9.37794 -9.44226 -12.91539 -17.76747 18.84974 -7.73711 -6.26054
P	 1.326700000	 0.355123000	 5.147637000
O	 2.853576000	 0.683918000	 5.477847000
O	 0.884506000	 1.503777000	 4.066672000
O	 0.435341000	 0.359240000	 6.320500000
O	 1.500843000	 -0.894962000	 4.227723000
H	 0.332139000	 2.146641000	 4.527718000
H	 0.716565000	 -1.095268000	 3.651004000
H	 2.928679000	 0.905864000	 6.412325000
P	 -0.168346120	 -0.252840279	 0.945014838
O	 0.860169880	 -0.695209279	 -0.189858162
O	 0.562643880	 1.046472721	 1.457488838
O	 -0.517305120	 -1.283766279	 1.947285838
O	 -1.487050120	 0.220251721	 0.179742838
H	 0.334026880	 1.237326721	 2.391959838
H	 -1.300698120	 0.899094721	 -0.478717162
H	 0.715857880	 -1.613262279	 -0.445634162
