16
0  1  0  1  0  1   8   8 -9.97707 -9.59497 -9.49143 -9.87353 -9.54649 -9.74623 -7.29555 -7.31099 -7.33630 -9.33833 -11.61181 11.33822 -4.84176 -4.22299
P	 -0.210067000	 0.222059000	 5.436956000
O	 0.933366000	 0.570689000	 6.495026000
O	 -0.120301000	 1.422441000	 4.325896000
O	 -1.563707000	 0.130666000	 6.010935000
O	 0.463007000	 -0.964350000	 4.676242000
H	 -0.861924000	 2.020940000	 4.476697000
H	 0.078777000	 -1.149884000	 3.778598000
H	 0.524307000	 0.737012000	 7.351272000
P	 0.465728271	 1.482951367	 0.802614843
O	 1.656213271	 1.637519366	 -0.246350157
O	 1.041516271	 2.369198367	 1.972325843
O	 0.058447271	 0.098281366	 1.128099843
O	 -0.772374729	 2.274274367	 0.178640843
H	 0.684280271	 2.086520366	 2.840889843
H	 -0.547370729	 3.185568367	 -0.040541157
H	 1.604265271	 0.957859366	 -0.927842157
