16
0  1  0  1  0  1   8   8  1.82008  3.04799  2.80072  1.57281  2.70383  2.00836  9.47775  9.46856  9.36995  2.24828 -30.92971 62.59576 -18.51600 -10.90177
P	 -0.347578000	 1.693870000	 4.914560000
O	 0.753620000	 2.521078000	 5.721768000
O	 -0.170023000	 2.182287000	 3.361064000
O	 -1.729182000	 1.902038000	 5.381445000
O	 0.326368000	 0.285307000	 4.882518000
H	 -0.900325000	 2.777526000	 3.152985000
H	 -0.019748000	 -0.321673000	 4.175694000
H	 0.309109000	 3.091909000	 6.357938000
P	 -0.027830231	 -0.263729144	 1.132503181
O	 1.000685769	 -0.706098144	 -0.002369819
O	 0.703159769	 1.035583856	 1.644977181
O	 -0.376789231	 -1.294655144	 2.134774181
O	 -1.346534231	 0.209362856	 0.367231181
H	 0.474542769	 1.226437856	 2.579448181
H	 -1.160182231	 0.888205856	 -0.291228819
H	 0.856373769	 -1.624151144	 -0.258145819
