8
0  1  0  1  0  1   3   5  4.88435  5.85393  5.71661  4.74702  5.61292  5.07475  9.57649  9.54452  9.45546  6.65109 -20.07723 43.04901 -9.29798 -7.02270
O	 -0.530420000	 0.000840000	 2.859700000
H	 0.117390000	 0.001290000	 3.565910000
H	 0.000000000	 -0.000000000	 2.057520000
F	 0.000000000	 0.000000000	 0.604970548
C	 -1.354420000	 0.001700000	 0.290670548
H	 -1.926620000	 0.004960000	 1.213210548
H	 -1.573590000	 0.890800000	 -0.292829452
H	 -1.576840000	 -0.889420000	 -0.288509452
