8
0  1  0  1  0  1   3   5 -3.40739 -3.18866 -3.10877 -3.32750 -3.14148 -3.25397 -2.08648 -2.07858 -2.09031 -3.14632 -4.08623  3.54708 -0.83064 -1.77652
O	 -0.530420000	 0.000840000	 0.802180000
H	 0.117390000	 0.001290000	 1.508390000
H	 0.000000000	 0.000000000	 0.000000000
F	 0.000000000	 1.091576086	 -1.890660372
C	 -1.354420000	 1.250196086	 -2.162010372
H	 -1.926620000	 0.791756086	 -1.361430372
H	 -1.573590000	 2.311936086	 -2.222780372
H	 -1.576840000	 0.768056086	 -3.109150372
