8
0  1  0  1  0  1   3   5 -3.40052 -3.10951 -3.03559 -3.32660 -3.07076 -3.23787 -1.89381 -1.88936 -1.93488 -2.98476 -5.13486  5.83835 -1.57962 -2.10863
O	 -0.530420000	 0.000840000	 0.802180000
H	 0.117390000	 0.001290000	 1.508390000
H	 0.000000000	 0.000000000	 0.000000000
F	 0.972386524	 0.000000000	 -1.684218527
C	 -0.043423476	 0.001700000	 -2.633628527
H	 -1.000233476	 0.004960000	 -2.120778527
H	 0.058516524	 0.890800000	 -3.248538527
H	 0.053546524	 -0.889420000	 -3.246418527
