8
0  1  0  1  0  1   3   5 -2.87618 -2.75297 -2.70926 -2.83247 -2.72259 -2.78938 -2.27545 -2.26844 -2.27618 -2.70728 -2.91060  1.76342 -0.54365 -1.01645
O	 0.970490000	 0.000840000	 2.741780000
H	 1.884620000	 0.001290000	 3.029470000
H	 1.028760000	 0.000000000	 1.781860000
F	 -0.090411544	 0.000000000	 -0.156596984
C	 -1.444831544	 0.001700000	 -0.470896984
H	 -2.017031544	 0.004960000	 0.451643016
H	 -1.664001544	 0.890800000	 -1.054396984
H	 -1.667251544	 -0.889420000	 -1.050076984
