8
0  1  0  1  0  1   3   5 -3.25099 -2.88532 -2.79410 -3.15977 -2.84121 -3.04196 -1.21410 -1.21147 -1.25079 -2.76350 -6.32430  7.93050 -1.64317 -2.72652
O	 -0.530420000	 0.000840000	 0.802180000
H	 0.117390000	 0.001290000	 1.508390000
H	 0.000000000	 0.000000000	 0.000000000
F	 0.000000000	 0.982418477	 -1.701594334
C	 -1.354420000	 1.141038477	 -1.972944334
H	 -1.926620000	 0.682598477	 -1.172364334
H	 -1.573590000	 2.202778477	 -2.033714334
H	 -1.576840000	 0.658898477	 -2.920084334
