8
0  1  0  1  0  1   3   5 -3.44328 -3.29415 -3.24840 -3.39753 -3.26700 -3.34443 -2.48024 -2.46777 -2.47243 -3.26310 -3.28336  1.89578 -0.57438 -1.30115
O	 -0.530420000	 1.430580000	 2.476150000
H	 0.117390000	 1.784070000	 3.087520000
H	 0.000000000	 1.028760000	 1.781860000
F	 0.000000000	 -0.114305524	 -0.197982465
C	 -1.354420000	 -0.112605524	 -0.512282465
H	 -1.926620000	 -0.109345524	 0.410257535
H	 -1.573590000	 0.776494476	 -1.095782465
H	 -1.576840000	 -1.003725524	 -1.091462465
