8
0  1  0  1  0  1   3   5 -1.07834 -1.00269 -0.95572 -1.03136 -0.97923 -1.00822 -0.49322 -0.48733 -0.48461 -0.97097 -0.81500  0.70610 -0.16204 -0.70003
O	 -1.889210000	 0.000840000	 2.211360000
H	 -1.681290000	 0.001290000	 3.146860000
H	 -1.028760000	 0.000000000	 1.781860000
F	 0.635101385	 0.000000000	 -1.100025034
C	 -0.719318615	 0.001700000	 -1.414325034
H	 -1.291518615	 0.004960000	 -0.491785034
H	 -0.938488615	 0.890800000	 -1.997825034
H	 -0.941738615	 -0.889420000	 -1.993505034
