8
0  1  0  1  0  1   3   5 -3.36767 -3.14175 -3.06917 -3.29509 -3.09650 -3.22412 -2.13664 -2.12790 -2.15826 -3.06726 -4.18566  3.97576 -1.13529 -1.72207
O	 -0.530420000	 0.000840000	 0.802180000
H	 0.117390000	 0.001290000	 1.508390000
H	 0.000000000	 0.000000000	 0.000000000
F	 1.023564762	 0.000000000	 -1.772861607
C	 0.007754762	 0.001700000	 -2.722271607
H	 -0.949055238	 0.004960000	 -2.209421607
H	 0.109694762	 0.890800000	 -3.337181607
H	 0.104724762	 -0.889420000	 -3.335061607
