8
0  1  0  1  0  1   3   5 -3.69925 -3.50613 -3.45368 -3.64680 -3.47850 -3.58109 -2.50354 -2.49346 -2.50602 -3.45585 -3.90219  2.82140 -0.78570 -1.58936
O	 -0.530420000	 1.430580000	 2.476150000
H	 0.117390000	 1.784070000	 3.087520000
H	 0.000000000	 1.028760000	 1.781860000
F	 0.000000000	 -0.062348000	 -0.107989625
C	 -1.354420000	 -0.060648000	 -0.422289625
H	 -1.926620000	 -0.057388000	 0.500250375
H	 -1.573590000	 0.828452000	 -1.005789625
H	 -1.576840000	 -0.951768000	 -1.001469625
