8
0  1  0  1  0  1   3   5 -3.07200 -2.85541 -2.79930 -3.01588 -2.82260 -2.94684 -2.08332 -2.08096 -2.11058 -2.73530 -4.15940  4.04735 -1.05599 -1.56726
O	 0.970490000	 0.000840000	 2.741780000
H	 1.884620000	 0.001290000	 3.029470000
H	 1.028760000	 0.000000000	 1.781860000
F	 0.016176222	 0.000000000	 0.028017967
C	 -1.338243778	 0.001700000	 -0.286282033
H	 -1.910443778	 0.004960000	 0.636257967
H	 -1.557413778	 0.890800000	 -0.869782033
H	 -1.560663778	 -0.889420000	 -0.865462033
