8
0  1  0  1  0  1   3   5 -3.23737 -3.06829 -2.99869 -3.16776 -3.02543 -3.10912 -2.17926 -2.16991 -2.17324 -3.04032 -3.36693  2.36758 -0.60013 -1.44084
O	 -0.530420000	 0.000840000	 0.802180000
H	 0.117390000	 0.001290000	 1.508390000
H	 0.000000000	 0.000000000	 0.000000000
F	 0.000000000	 1.146154890	 -1.985193390
C	 -1.354420000	 1.304774890	 -2.256543390
H	 -1.926620000	 0.846334890	 -1.455963390
H	 -1.573590000	 2.366514890	 -2.317313390
H	 -1.576840000	 0.822634890	 -3.203683390
