8
0  1  0  1  0  1   3   5  4.83939  5.79183  5.66048  4.70804  5.55710  5.03103  9.49587  9.46335  9.37990  6.59343 -19.86166 42.48999 -9.08280 -6.95211
O	 -0.530420000	 -1.429120000	 2.476990000
H	 0.117390000	 -1.781840000	 3.088810000
H	 0.000000000	 -1.028760000	 1.781860000
F	 0.000000000	 -0.301498693	 0.522209710
C	 -1.354420000	 -0.299798693	 0.207909710
H	 -1.926620000	 -0.296538693	 1.130449710
H	 -1.573590000	 0.589301307	 -0.375590290
H	 -1.576840000	 -1.190918693	 -0.371270290
