8
0  1  0  1  0  1   3   5  4.84269  5.79627  5.66465  4.71107  5.56121  5.03447  9.50834  9.47586  9.39229  6.59732 -19.87035 42.51163 -9.08387 -6.96009
O	 -0.530420000	 1.430580000	 2.476150000
H	 0.117390000	 1.784070000	 3.087520000
H	 0.000000000	 1.028760000	 1.781860000
F	 0.000000000	 0.301354667	 0.521960250
C	 -1.354420000	 0.303054667	 0.207660250
H	 -1.926620000	 0.306314667	 1.130200250
H	 -1.573590000	 1.192154667	 -0.375839750
H	 -1.576840000	 -0.588065333	 -0.371519750
