8
0  1  0  1  0  1   3   5 -1.72627 -1.08019 -1.08120 -1.72728 -1.15254 -1.51944  1.56498  1.55170  1.46961 -0.58447 -11.75701 20.19884 -4.45692 -4.56938
O	 -0.530420000	 0.000840000	 2.859700000
H	 0.117390000	 0.001290000	 3.565910000
H	 0.000000000	 -0.000000000	 2.057520000
F	 0.000000000	 0.000000000	 0.397463484
C	 -1.354420000	 0.001700000	 0.083163484
H	 -1.926620000	 0.004960000	 1.005703484
H	 -1.573590000	 0.890800000	 -0.500336516
H	 -1.576840000	 -0.889420000	 -0.496016516
