8
0  1  0  1  0  1   3   5 -1.16559 -1.06568 -1.00936 -1.10927 -1.03860 -1.07816 -0.37536 -0.37036 -0.36729 -1.01731 -1.06219  1.21046 -0.24682 -0.91876
O	 -1.889210000	 0.000840000	 2.211360000
H	 -1.681290000	 0.001290000	 3.146860000
H	 -1.028760000	 0.000000000	 1.781860000
F	 0.555869891	 0.000000000	 -0.962792414
C	 -0.798550109	 0.001700000	 -1.277092414
H	 -1.370750109	 0.004960000	 -0.354552414
H	 -1.017720109	 0.890800000	 -1.860592414
H	 -1.020970109	 -0.889420000	 -1.856272414
