8
0  1  0  1  0  1   3   5 -3.44647 -3.16305 -3.07529 -3.35871 -3.11478 -3.26589 -1.80314 -1.79746 -1.82137 -3.09197 -5.03991  5.30804 -1.16297 -2.19713
O	 -0.530420000	 0.000840000	 0.802180000
H	 0.117390000	 0.001290000	 1.508390000
H	 0.000000000	 0.000000000	 0.000000000
F	 0.000000000	 -1.036625899	 -1.795484102
C	 -1.354420000	 -1.192305899	 -2.068534102
H	 -1.926620000	 -0.728205899	 -1.271214102
H	 -1.573590000	 -0.714065899	 -3.018404102
H	 -1.576840000	 -2.253625899	 -2.124554102
