8
0  1  0  1  0  1   3   5 -0.96299 -0.90504 -0.86687 -0.92483 -0.88526 -0.90728 -0.53065 -0.52441 -0.52237 -0.88557 -0.65023  0.40893 -0.10844 -0.53583
O	 -1.889210000	 0.000840000	 2.211360000
H	 -1.681290000	 0.001290000	 3.146860000
H	 -1.028760000	 0.000000000	 1.781860000
F	 0.714332880	 0.000000000	 -1.237257655
C	 -0.640087120	 0.001700000	 -1.551557655
H	 -1.212287120	 0.004960000	 -0.629017655
H	 -0.859257120	 0.890800000	 -2.135057655
H	 -0.862507120	 -0.889420000	 -2.130737655
