8
0  1  0  1  0  1   3   5 -1.68215 -1.04950 -1.04751 -1.68016 -1.11834 -1.47600  1.58328  1.56902  1.49112 -0.55688 -11.59217 19.88819 -4.33642 -4.51648
O	 -0.530420000	 -1.429120000	 2.476990000
H	 0.117390000	 -1.781840000	 3.088810000
H	 0.000000000	 -1.028760000	 1.781860000
F	 0.000000000	 -0.197604221	 0.342259669
C	 -1.354420000	 -0.195904221	 0.027959669
H	 -1.926620000	 -0.192644221	 0.950499669
H	 -1.573590000	 0.693195779	 -0.555540331
H	 -1.576840000	 -1.087024221	 -0.551220331
