8
0  1  0  1  0  1   3   5 -2.91954 -2.63636 -2.57939 -2.86257 -2.60910 -2.77452 -1.66739 -1.66853 -1.71329 -2.44390 -5.10039  6.11411 -1.49998 -1.95764
O	 0.970490000	 0.000840000	 2.741780000
H	 1.884620000	 0.001290000	 3.029470000
H	 1.028760000	 0.000000000	 1.781860000
F	 0.069470105	 0.000000000	 0.120325442
C	 -1.284949895	 0.001700000	 -0.193974558
H	 -1.857149895	 0.004960000	 0.728565442
H	 -1.504119895	 0.890800000	 -0.777474558
H	 -1.507369895	 -0.889420000	 -0.773154558
