8
0  1  0  1  0  1   3   5 -3.00208 -2.87058 -2.81189 -2.94340 -2.83354 -2.89620 -2.15697 -2.14687 -2.14485 -2.84985 -2.81767  1.57890 -0.43847 -1.17261
O	 -0.530420000	 0.000840000	 0.802180000
H	 0.117390000	 0.001290000	 1.508390000
H	 0.000000000	 0.000000000	 0.000000000
F	 0.000000000	 -1.200303672	 -2.078981591
C	 -1.354420000	 -1.355983672	 -2.352031591
H	 -1.926620000	 -0.891883672	 -1.554711591
H	 -1.573590000	 -0.877743672	 -3.301901591
H	 -1.576840000	 -2.417303672	 -2.408051591
