8
0  1  0  1  0  1   3   5 -3.87884 -3.62920 -3.57205 -3.82169 -3.60401 -3.73989 -2.40286 -2.39608 -2.41986 -3.54575 -4.70363  4.18899 -1.08542 -1.94570
O	 -0.530420000	 -1.429120000	 2.476990000
H	 0.117390000	 -1.781840000	 3.088810000
H	 0.000000000	 -1.028760000	 1.781860000
F	 0.000000000	 0.010184724	 -0.017640414
C	 -1.354420000	 0.011884724	 -0.331940414
H	 -1.926620000	 0.015144724	 0.590599586
H	 -1.573590000	 0.900984724	 -0.915440414
H	 -1.576840000	 -0.879235276	 -0.911120414
