8
0  1  0  1  0  1   3   5  5.43697  6.04363  5.99824  5.39158  5.95322  5.61382  9.82661  9.84162  9.80677  6.22585 -10.35625 25.85058 -4.13136 -5.13712
O	 -1.889210000	 0.000840000	 2.211360000
H	 -1.681290000	 0.001290000	 3.146860000
H	 -1.028760000	 0.000000000	 1.781860000
F	 0.080480924	 0.000000000	 -0.139396690
C	 -1.273939076	 0.001700000	 -0.453696690
H	 -1.846139076	 0.004960000	 0.468843310
H	 -1.493109076	 0.890800000	 -1.037196690
H	 -1.496359076	 -0.889420000	 -1.032876690
