8
0  1  0  1  0  1   3   5  3.82475  4.52372  4.46529  3.76633  4.39137  3.99834  6.73585  6.70799  6.63289  5.33260 -13.88576 30.92131 -6.78609 -4.91685
O	 0.970490000	 0.000840000	 2.741780000
H	 1.884620000	 0.001290000	 3.029470000
H	 1.028760000	 0.000000000	 1.781860000
F	 0.282645637	 0.000000000	 0.489555344
C	 -1.071774363	 0.001700000	 0.175255344
H	 -1.643974363	 0.004960000	 1.097795344
H	 -1.290944363	 0.890800000	 -0.408244656
H	 -1.294194363	 -0.889420000	 -0.403924656
