8
0  1  0  1  0  1   3   5 -3.44665 -3.16329 -3.07535 -3.35871 -3.11486 -3.26588 -1.80310 -1.79740 -1.82121 -3.09273 -5.04103  5.30781 -1.16210 -2.19741
O	 -0.530420000	 0.000840000	 0.802180000
H	 0.117390000	 0.001290000	 1.508390000
H	 0.000000000	 0.000000000	 0.000000000
F	 0.000000000	 1.036997281	 -1.796127353
C	 -1.354420000	 1.195617281	 -2.067477353
H	 -1.926620000	 0.737177281	 -1.266897353
H	 -1.573590000	 2.257357281	 -2.128247353
H	 -1.576840000	 0.713477281	 -3.014617353
