8
0  1  0  1  0  1   3   5 -3.13702 -2.98440 -2.93729 -3.08991 -2.96627 -3.03513 -2.05479 -2.04739 -2.04119 -2.96759 -3.11016  2.02315 -0.48515 -1.39543
O	 -0.530420000	 0.000840000	 0.802180000
H	 0.117390000	 0.001290000	 1.508390000
H	 0.000000000	 0.000000000	 0.000000000
F	 -1.263637224	 0.000000000	 -2.188678238
C	 -2.593747224	 0.001700000	 -1.783668238
H	 -2.628017224	 0.004960000	 -0.698618238
H	 -3.075307224	 0.890800000	 -2.179408238
H	 -3.075957224	 -0.889420000	 -2.174038238
