8
0  1  0  1  0  1   3   5 -1.68171 -1.04831 -1.04640 -1.67980 -1.11728 -1.47537  1.59013  1.57591  1.49795 -0.55592 -11.59591 19.89927 -4.33729 -4.52199
O	 -0.530420000	 1.430580000	 2.476150000
H	 0.117390000	 1.784070000	 3.087520000
H	 0.000000000	 1.028760000	 1.781860000
F	 0.000000000	 0.197439619	 0.341974571
C	 -1.354420000	 0.199139619	 0.027674571
H	 -1.926620000	 0.202399619	 0.950214571
H	 -1.573590000	 1.088239619	 -0.555825429
H	 -1.576840000	 -0.691980381	 -0.551505429
