8
0  1  0  1  0  1   3   5 -1.41830 -0.82900 -0.76206 -1.35136 -0.82671 -1.16047  1.65885  1.65294  1.58077 -0.50284 -10.47172 17.57551 -3.38582 -4.22081
O	 -0.530420000	 0.000840000	 0.802180000
H	 0.117390000	 0.001290000	 1.508390000
H	 0.000000000	 0.000000000	 0.000000000
F	 0.000000000	 -0.872948125	 -1.511986612
C	 -1.354420000	 -1.028628125	 -1.785036612
H	 -1.926620000	 -0.564528125	 -0.987716612
H	 -1.573590000	 -0.550388125	 -2.734906612
H	 -1.576840000	 -2.089948125	 -1.841056612
