8
0  1  0  1  0  1   3   5 -0.69050 -0.08754 -0.04090 -0.64385 -0.10960 -0.44038  2.88981  2.88747  2.83552  0.12039 -10.71048 18.24601 -2.86428 -4.55086
O	 -0.530420000	 0.000840000	 0.802180000
H	 0.117390000	 0.001290000	 1.508390000
H	 0.000000000	 0.000000000	 0.000000000
F	 -0.962771219	 0.000000000	 -1.667564372
C	 -2.292881219	 0.001700000	 -1.262554372
H	 -2.327151219	 0.004960000	 -0.177504372
H	 -2.774441219	 0.890800000	 -1.658294372
H	 -2.775091219	 -0.889420000	 -1.652924372
