8
0  1  0  1  0  1   3   5 -2.99142 -2.85795 -2.79794 -2.93141 -2.81243 -2.88529 -2.18277 -2.16795 -2.17759 -2.82939 -2.89821  1.83350 -0.60380 -1.16088
O	 -0.530420000	 0.000840000	 0.802180000
H	 0.117390000	 0.001290000	 1.508390000
H	 0.000000000	 0.000000000	 0.000000000
F	 1.125921238	 0.000000000	 -1.950147768
C	 0.110111238	 0.001700000	 -2.899557768
H	 -0.846698762	 0.004960000	 -2.386707768
H	 0.212051238	 0.890800000	 -3.514467768
H	 0.207081238	 -0.889420000	 -3.512347768
