8
0  1  0  1  0  1   3   5 -3.75948 -3.34008 -3.28955 -3.70896 -3.33989 -3.57733 -1.51808 -1.51930 -1.57636 -3.11032 -7.27245  9.34875 -2.19811 -2.98851
O	 -0.530420000	 0.000840000	 2.859700000
H	 0.117390000	 0.001290000	 3.565910000
H	 0.000000000	 -0.000000000	 2.057520000
F	 0.000000000	 0.000000000	 0.189956419
C	 -1.354420000	 0.001700000	 -0.124343581
H	 -1.926620000	 0.004960000	 0.798196419
H	 -1.573590000	 0.890800000	 -0.707843581
H	 -1.576840000	 -0.889420000	 -0.703523581
