8
0  1  0  1  0  1   3   5 -3.68610 -3.27733 -3.22581 -3.63459 -3.27488 -3.50571 -1.46121 -1.46334 -1.51755 -3.05400 -7.15259  9.18263 -2.13321 -2.95084
O	 -0.530420000	 -1.429120000	 2.476990000
H	 0.117390000	 -1.781840000	 3.088810000
H	 0.000000000	 -1.028760000	 1.781860000
F	 0.000000000	 -0.093709748	 0.162309627
C	 -1.354420000	 -0.092009748	 -0.151990373
H	 -1.926620000	 -0.088749748	 0.770549627
H	 -1.573590000	 0.797090252	 -0.735490373
H	 -1.576840000	 -0.983129748	 -0.731170373
