8
0  1  0  1  0  1   3   5  7.54501  8.57824  8.50279  7.46955  8.40899  7.82554 13.20284 13.19009 13.09448  8.98051 -20.19015 42.77146 -6.18447 -7.41633
O	 -0.530420000	 0.000840000	 0.802180000
H	 0.117390000	 0.001290000	 1.508390000
H	 0.000000000	 0.000000000	 0.000000000
F	 -0.842424816	 0.000000000	 -1.459118826
C	 -2.172534816	 0.001700000	 -1.054108826
H	 -2.206804816	 0.004960000	 0.030941174
H	 -2.654094816	 0.890800000	 -1.449848826
H	 -2.654744816	 -0.889420000	 -1.444478826
