8
0  1  0  1  0  1   3   5 -2.88091 -2.76136 -2.72416 -2.84371 -2.74912 -2.80035 -2.03395 -2.02739 -2.01921 -2.75229 -2.58086  1.29257 -0.35091 -1.11308
O	 -0.530420000	 0.000840000	 0.802180000
H	 0.117390000	 0.001290000	 1.508390000
H	 0.000000000	 0.000000000	 0.000000000
F	 -1.323810426	 0.000000000	 -2.292901012
C	 -2.653920426	 0.001700000	 -1.887891012
H	 -2.688190426	 0.004960000	 -0.802841012
H	 -3.135480426	 0.890800000	 -2.283631012
H	 -3.136130426	 -0.889420000	 -2.278261012
