8
0  1  0  1  0  1   3   5 -3.87954 -3.62961 -3.57244 -3.82237 -3.60447 -3.74047 -2.40060 -2.39377 -2.41752 -3.54584 -4.70371  4.19176 -1.08564 -1.94826
O	 -0.530420000	 1.430580000	 2.476150000
H	 0.117390000	 1.784070000	 3.087520000
H	 0.000000000	 1.028760000	 1.781860000
F	 0.000000000	 -0.010390476	 -0.017996786
C	 -1.354420000	 -0.008690476	 -0.332296786
H	 -1.926620000	 -0.005430476	 0.590243214
H	 -1.573590000	 0.880409524	 -0.915796786
H	 -1.576840000	 -0.899810476	 -0.911476786
