8
0  1  0  1  0  1   3   5 -3.91189 -3.59065 -3.53285 -3.85410 -3.57295 -3.75160 -2.09461 -2.09190 -2.13009 -3.45188 -5.75488  6.21032 -1.51460 -2.39273
O	 -0.530420000	 -1.429120000	 2.476990000
H	 0.117390000	 -1.781840000	 3.088810000
H	 0.000000000	 -1.028760000	 1.781860000
F	 0.000000000	 -0.041762512	 0.072334607
C	 -1.354420000	 -0.040062512	 -0.241965393
H	 -1.926620000	 -0.036802512	 0.680574607
H	 -1.573590000	 0.849037488	 -0.825465393
H	 -1.576840000	 -0.931182512	 -0.821145393
