8
0  1  0  1  0  1   3   5 -3.95402 -3.69619 -3.63893 -3.89676 -3.67271 -3.81304 -2.46897 -2.46149 -2.48710 -3.60519 -4.78940  4.27663 -1.11967 -1.97276
O	 -0.530420000	 0.000840000	 2.859700000
H	 0.117390000	 0.001290000	 3.565910000
H	 0.000000000	 -0.000000000	 2.057520000
F	 0.000000000	 0.000000000	 -0.017550646
C	 -1.354420000	 0.001700000	 -0.331850646
H	 -1.926620000	 0.004960000	 0.590689354
H	 -1.573590000	 0.890800000	 -0.915350646
H	 -1.576840000	 -0.889420000	 -0.911030646
