8
0  1  0  1  0  1   3   5  4.71303  5.62382  5.58631  4.67552  5.49705  4.98427  9.24743  9.22874  9.13907  6.23310 -18.46115 38.47304 -7.20976 -6.56903
O	 -0.530420000	 0.000840000	 0.802180000
H	 0.117390000	 0.001290000	 1.508390000
H	 0.000000000	 0.000000000	 0.000000000
F	 0.000000000	 0.764103260	 -1.323462260
C	 -1.354420000	 0.922723260	 -1.594812260
H	 -1.926620000	 0.464283260	 -0.794232260
H	 -1.573590000	 1.984463260	 -1.655582260
H	 -1.576840000	 0.440583260	 -2.541952260
