8
0  1  0  1  0  1   3   5 -3.08782 -2.74426 -2.67436 -3.01793 -2.72285 -2.90022 -0.85315 -0.84869 -0.86475 -2.67109 -6.13317  7.64076 -1.36793 -2.81075
O	 -0.530420000	 0.000840000	 0.802180000
H	 0.117390000	 0.001290000	 1.508390000
H	 0.000000000	 0.000000000	 0.000000000
F	 -1.083117621	 0.000000000	 -1.876009919
C	 -2.413227621	 0.001700000	 -1.470999919
H	 -2.447497621	 0.004960000	 -0.385949919
H	 -2.894787621	 0.890800000	 -1.866739919
H	 -2.895437621	 -0.889420000	 -1.861369919
