8
0  1  0  1  0  1   3   5 -1.03593 -0.85737 -0.78720 -0.96576 -0.82507 -0.90699  0.39011  0.39598  0.39459 -0.75720 -2.03087  3.48243 -0.60270 -1.60607
O	 -1.889210000	 0.000840000	 2.211360000
H	 -1.681290000	 0.001290000	 3.146860000
H	 -1.028760000	 0.000000000	 1.781860000
F	 0.397406902	 0.000000000	 -0.688327172
C	 -0.957013098	 0.001700000	 -1.002627172
H	 -1.529213098	 0.004960000	 -0.080087172
H	 -1.176183098	 0.890800000	 -1.586127172
H	 -1.179433098	 -0.889420000	 -1.581807172
