8
0  1  0  1  0  1   3   5 -3.21142 -3.03754 -2.97022 -3.14410 -2.99064 -3.08707 -2.21132 -2.19914 -2.21742 -2.99290 -3.45977  2.70190 -0.82382 -1.41122
O	 -0.530420000	 0.000840000	 0.802180000
H	 0.117390000	 0.001290000	 1.508390000
H	 0.000000000	 0.000000000	 0.000000000
F	 1.074743000	 0.000000000	 -1.861504687
C	 0.058933000	 0.001700000	 -2.810914687
H	 -0.897877000	 0.004960000	 -2.298064687
H	 0.160873000	 0.890800000	 -3.425824687
H	 0.155903000	 -0.889420000	 -3.423704687
