8
0  1  0  1  0  1   3   5 -3.68665 -3.27742 -3.22591 -3.63514 -3.27503 -3.50608 -1.45738 -1.45946 -1.51366 -3.05398 -7.15389  9.18820 -2.13369 -2.95460
O	 -0.530420000	 1.430580000	 2.476150000
H	 0.117390000	 1.784070000	 3.087520000
H	 0.000000000	 1.028760000	 1.781860000
F	 0.000000000	 0.093524572	 0.161988893
C	 -1.354420000	 0.095224572	 -0.152311107
H	 -1.926620000	 0.098484572	 0.770228893
H	 -1.573590000	 0.984324572	 -0.735811107
H	 -1.576840000	 -0.795895428	 -0.731491107
