8
0  1  0  1  0  1   3   5 -1.41753 -0.82811 -0.76080 -1.35022 -0.82549 -1.15926  1.66091  1.65502  1.58293 -0.50331 -10.47528 17.57687 -3.38290 -4.22201
O	 -0.530420000	 0.000840000	 0.802180000
H	 0.117390000	 0.001290000	 1.508390000
H	 0.000000000	 0.000000000	 0.000000000
F	 0.000000000	 0.873260868	 -1.512528297
C	 -1.354420000	 1.031880868	 -1.783878297
H	 -1.926620000	 0.573440868	 -0.983298297
H	 -1.573590000	 2.093620868	 -1.844648297
H	 -1.576840000	 0.549740868	 -2.731018297
