10
0  1  0  1  0  1   5   5 18.52349 19.48867 19.52176 18.55658 19.44609 18.90747 24.69350 24.68786 24.63009 19.49362 -22.02543 57.41748 -7.86751 -8.03091
F	 -1.135564491	 0.879925427	 0.000190407
C	 -0.964370491	 -0.495029573	 0.000100407
H	 -1.433813491	 -0.907720573	 -0.888774593
H	 -1.433606491	 -0.907811573	 0.889042407
H	 0.098175509	 -0.718685573	 -0.000033593
F	 1.313153000	 1.450642000	 0.000091000
C	 0.477317000	 2.555718000	 0.000044000
H	 -0.554670000	 2.218037000	 0.000048000
H	 0.677363000	 3.147811000	 -0.888886000
H	 0.677347000	 3.147876000	 0.888934000
