10
0  1  0  1  0  1   5   5 24.37973 25.82021 25.88098 24.44050 25.77528 24.94812 32.57446 32.55872 32.42718 25.62144 -31.44527 77.50555 -9.58978 -10.84907
F	 -0.868088795	 0.484717484	 0.547311015
C	 -0.696894795	 -0.890237516	 0.547221015
H	 -1.166337795	 -1.302928516	 -0.341653985
H	 -1.166130795	 -1.303019516	 1.436163015
H	 0.365651205	 -1.113893516	 0.547087015
F	 1.343675000	 -0.392535000	 1.729751000
C	 1.160102000	 0.980036000	 1.776284000
H	 0.229163000	 1.229055000	 1.275917000
H	 1.994835000	 1.463550000	 1.276060000
H	 1.122118000	 1.294633000	 2.815694000
