10
0  1  0  1  0  1   5   5 -1.75743 -1.44121 -1.26574 -1.58196 -1.30770 -1.47092  0.55979  0.57422  0.56317 -1.40039 -4.54574  6.98245 -1.01195 -2.82516
F	 -1.453134233	 0.371418623	 0.203267397
C	 -1.281940233	 -1.003536377	 0.203177397
H	 -1.751383233	 -1.416227377	 -0.685697603
H	 -1.751176233	 -1.416318377	 1.092119397
H	 -0.219394233	 -1.227192377	 0.203043397
F	 1.343675000	 -0.392535000	 1.729751000
C	 1.160102000	 0.980036000	 1.776284000
H	 0.229163000	 1.229055000	 1.275917000
H	 1.994835000	 1.463550000	 1.276060000
H	 1.122118000	 1.294633000	 2.815694000
