10
0  1  0  1  0  1   5   5 -1.02765 -0.79217 -0.67139 -0.90687 -0.72042 -0.83032  0.92579  0.93421  0.92922 -0.78940 -2.83710  4.95707 -0.70869 -2.20068
F	 -1.469262076	 2.111440876	 0.000322657
C	 -2.008481076	 0.835097876	 0.000254657
H	 -2.621406076	 0.712415876	 -0.888599343
H	 -2.621211076	 0.712238876	 0.889217657
H	 -1.200117076	 0.110132876	 0.000095657
F	 1.798660000	 -0.304510000	 0.000167000
C	 1.627343000	 1.070432000	 0.000107000
H	 0.564776000	 1.293985000	 0.000086000
H	 2.096654000	 1.483171000	 -0.888816000
H	 2.096634000	 1.483247000	 0.889004000
