10
0  1  0  1  0  1   5   5 -1.19149 -1.14583 -1.10664 -1.15229 -1.11984 -1.13574 -0.85859 -0.85648 -0.84969 -1.14485 -0.83476  0.26898 -0.09679 -0.48227
F	 -2.268256368	 -0.103276716	 0.000235849
C	 -2.097062368	 -1.478231716	 0.000145849
H	 -2.566505368	 -1.890922716	 -0.888729151
H	 -2.566298368	 -1.891013716	 0.889087849
H	 -1.034516368	 -1.701887716	 0.000011849
F	 1.313153000	 1.450642000	 0.000091000
C	 0.477317000	 2.555718000	 0.000044000
H	 -0.554670000	 2.218037000	 0.000048000
H	 0.677363000	 3.147811000	 -0.888886000
H	 0.677347000	 3.147876000	 0.888934000
