10
0  1  0  1  0  1   5   5 -1.81935 -1.73422 -1.67431 -1.75944 -1.69991 -1.73077 -1.17373 -1.16761 -1.15918 -1.73340 -1.32027  0.56512 -0.15173 -0.82652
F	 -1.583241585	 0.346341750	 -1.870331206
C	 -1.399774585	 -1.026233250	 -1.917076206
H	 -1.361957585	 -1.340692250	 -2.956535206
H	 -2.234476585	 -1.509755250	 -1.416807206
H	 -0.468787585	 -1.275397250	 -1.416869206
F	 1.798660000	 -0.304510000	 0.000167000
C	 1.627343000	 1.070432000	 0.000107000
H	 0.564776000	 1.293985000	 0.000086000
H	 2.096654000	 1.483171000	 -0.888816000
H	 2.096634000	 1.483247000	 0.889004000
