10
0  1  0  1  0  1   5   5 -2.07003 -1.95953 -1.87760 -1.98810 -1.90511 -1.94975 -1.18380 -1.17341 -1.16551 -1.95110 -1.67443  1.06768 -0.23422 -1.11014
F	 -1.891918078	 0.286449309	 0.055201272
C	 -1.720724078	 -1.088505691	 0.055111272
H	 -2.190167078	 -1.501196691	 -0.833763728
H	 -2.189960078	 -1.501287691	 0.944053272
H	 -0.658178078	 -1.312161691	 0.054977272
F	 1.343668000	 -0.392687000	 -1.729407000
C	 1.160094000	 0.979880000	 -1.776060000
H	 0.229144000	 1.228940000	 -1.275734000
H	 1.122133000	 1.294388000	 -2.815499000
H	 1.994816000	 1.463437000	 -1.275859000
