10
0  1  0  1  0  1   5   5 -1.81930 -1.73418 -1.67427 -1.75939 -1.69987 -1.73073 -1.17374 -1.16762 -1.15919 -1.73337 -1.32023  0.56506 -0.15173 -0.82647
F	 -1.583156180	 0.346108133	 1.870760224
C	 -1.399688180	 -1.026472867	 1.917325224
H	 -2.234509180	 -1.509939867	 1.417201224
H	 -1.361631180	 -1.341036867	 2.956743224
H	 -0.468818180	 -1.275592867	 1.416879224
F	 1.798660000	 -0.304510000	 0.000167000
C	 1.627343000	 1.070432000	 0.000107000
H	 0.564776000	 1.293985000	 0.000086000
H	 2.096654000	 1.483171000	 -0.888816000
H	 2.096634000	 1.483247000	 0.889004000
