10
0  1  0  1  0  1   5   5 -1.34318 -1.23240 -1.15402 -1.26480 -1.18958 -1.23170 -0.37442 -0.36639 -0.36314 -1.24061 -1.18678  1.26415 -0.21754 -1.10044
F	 -1.851357522	 2.243314868	 0.000339550
C	 -2.390576522	 0.966971868	 0.000271550
H	 -3.003501522	 0.844289868	 -0.888582450
H	 -3.003306522	 0.844112868	 0.889234550
H	 -1.582212522	 0.242006868	 0.000112550
F	 1.798660000	 -0.304510000	 0.000167000
C	 1.627343000	 1.070432000	 0.000107000
H	 0.564776000	 1.293985000	 0.000086000
H	 2.096654000	 1.483171000	 -0.888816000
H	 2.096634000	 1.483247000	 0.889004000
