10
0  1  0  1  0  1   5   5  3.69194  4.45350  4.64351  3.88196  4.57732  4.13952  8.25976  8.26488  8.18003  4.56455 -12.55916 26.53995 -3.63286 -5.78338
F	 -1.086726195	 0.442358387	 0.000209513
C	 -0.915532195	 -0.932596613	 0.000119513
H	 -1.384975195	 -1.345287613	 -0.888755487
H	 -1.384768195	 -1.345378613	 0.889061513
H	 0.147013805	 -1.156252613	 -0.000014487
F	 1.798660000	 -0.304510000	 0.000167000
C	 1.627343000	 1.070432000	 0.000107000
H	 0.564776000	 1.293985000	 0.000086000
H	 2.096654000	 1.483171000	 -0.888816000
H	 2.096634000	 1.483247000	 0.889004000
