10
0  1  0  1  0  1   5   5 -1.88879 -1.80010 -1.73794 -1.82662 -1.76572 -1.79706 -1.23414 -1.22771 -1.21854 -1.80234 -1.40020  0.60966 -0.16472 -0.84708
F	 -2.109347154	 0.244345529	 0.000220271
C	 -1.938153154	 -1.130609471	 0.000130271
H	 -2.407596154	 -1.543300471	 -0.888744729
H	 -2.407389154	 -1.543391471	 0.889072271
H	 -0.875607154	 -1.354265471	 -0.000003729
F	 1.798660000	 -0.304510000	 0.000167000
C	 1.627343000	 1.070432000	 0.000107000
H	 0.564776000	 1.293985000	 0.000086000
H	 2.096654000	 1.483171000	 -0.888816000
H	 2.096634000	 1.483247000	 0.889004000
