10
0  1  0  1  0  1   5   5 -1.81942 -1.73427 -1.67435 -1.75950 -1.69995 -1.73082 -1.17375 -1.16762 -1.15920 -1.73346 -1.32036  0.56524 -0.15176 -0.82657
F	 -2.038179073	 0.258132153	 0.141215238
C	 -1.866985073	 -1.116822847	 0.141125238
H	 -2.336428073	 -1.529513847	 -0.747749762
H	 -2.336221073	 -1.529604847	 1.030067238
H	 -0.804439073	 -1.340478847	 0.140991238
F	 1.343668000	 -0.392687000	 -1.729407000
C	 1.160094000	 0.979880000	 -1.776060000
H	 0.229144000	 1.228940000	 -1.275734000
H	 1.122133000	 1.294388000	 -2.815499000
H	 1.994816000	 1.463437000	 -1.275859000
