10
0  1  0  1  0  1   5   5 -1.81928 -1.73417 -1.67426 -1.75937 -1.69986 -1.73071 -1.17373 -1.16760 -1.15917 -1.73336 -1.32026  0.56512 -0.15174 -0.82648
F	 -2.038179670	 0.258119761	 -0.140776220
C	 -1.866985670	 -1.116835239	 -0.140866220
H	 -2.336428670	 -1.529526239	 -1.029741220
H	 -2.336221670	 -1.529617239	 0.748075780
H	 -0.804439670	 -1.340491239	 -0.141000220
F	 1.343675000	 -0.392535000	 1.729751000
C	 1.160102000	 0.980036000	 1.776284000
H	 0.229163000	 1.229055000	 1.275917000
H	 1.994835000	 1.463550000	 1.276060000
H	 1.122118000	 1.294633000	 2.815694000
