10
0  1  0  1  0  1   5   5 -2.06993 -1.95943 -1.87750 -1.98800 -1.90501 -1.94965 -1.18380 -1.17341 -1.16551 -1.95101 -1.67428  1.06747 -0.23419 -1.11001
F	 -1.891918311	 0.286444477	 -0.054765316
C	 -1.720724311	 -1.088510523	 -0.054855316
H	 -2.190167311	 -1.501201523	 -0.943730316
H	 -2.189960311	 -1.501292523	 0.834086684
H	 -0.658178311	 -1.312166523	 -0.054989316
F	 1.343675000	 -0.392535000	 1.729751000
C	 1.160102000	 0.980036000	 1.776284000
H	 0.229163000	 1.229055000	 1.275917000
H	 1.994835000	 1.463550000	 1.276060000
H	 1.122118000	 1.294633000	 2.815694000
