10
0  1  0  1  0  1   5   5 -1.75757 -1.44134 -1.26585 -1.58208 -1.30781 -1.47104  0.55979  0.57422  0.56318 -1.40051 -4.54572  6.98236 -1.01188 -2.82527
F	 -0.998189035	 0.459604036	 -1.526287623
C	 -0.814722035	 -0.912970964	 -1.573032623
H	 -0.776905035	 -1.227429964	 -2.612491623
H	 -1.649424035	 -1.396492964	 -1.072763623
H	 0.116264965	 -1.162134964	 -1.072825623
F	 1.798660000	 -0.304510000	 0.000167000
C	 1.627343000	 1.070432000	 0.000107000
H	 0.564776000	 1.293985000	 0.000086000
H	 2.096654000	 1.483171000	 -0.888816000
H	 2.096634000	 1.483247000	 0.889004000
