10
0  1  0  1  0  1   5   5 -1.61870 -1.48541 -1.38754 -1.52083 -1.40976 -1.47393 -0.60692 -0.60101 -0.60093 -1.47121 -1.90563  2.12203 -0.40110 -1.28650
F	 -1.357999907	 -1.489699910	 0.000094571
C	 -0.522264907	 -2.594848910	 0.000006571
H	 -0.722442907	 -3.186953910	 -0.888885429
H	 -0.722268907	 -3.186963910	 0.888931571
H	 0.509755093	 -2.257267910	 -0.000091429
F	 1.798660000	 -0.304510000	 0.000167000
C	 1.627343000	 1.070432000	 0.000107000
H	 0.564776000	 1.293985000	 0.000086000
H	 2.096654000	 1.483171000	 -0.888816000
H	 2.096634000	 1.483247000	 0.889004000
