10
0  1  0  1  0  1   5   5 -1.61847 -1.48515 -1.38727 -1.52058 -1.40949 -1.47368 -0.60650 -0.60059 -0.60051 -1.47094 -1.90607  2.12313 -0.40126 -1.28674
F	 -1.843496914	 0.265424088	 0.000218808
C	 -1.672302914	 -1.109530912	 0.000128808
H	 -2.141745914	 -1.522221912	 -0.888746192
H	 -2.141538914	 -1.522312912	 0.889070808
H	 -0.609756914	 -1.333186912	 -0.000005192
F	 1.313153000	 1.450642000	 0.000091000
C	 0.477317000	 2.555718000	 0.000044000
H	 -0.554670000	 2.218037000	 0.000048000
H	 0.677363000	 3.147811000	 -0.888886000
H	 0.677347000	 3.147876000	 0.888934000
