10
0  1  0  1  0  1   5   5 -1.38578 -1.32320 -1.26871 -1.33129 -1.28389 -1.30874 -0.90372 -0.89968 -0.89363 -1.32041 -1.04668  0.53773 -0.15029 -0.66116
F	 -1.641172829	 -1.735500429	 0.000085590
C	 -0.805437829	 -2.840649429	 -0.000002410
H	 -1.005615829	 -3.432754429	 -0.888894410
H	 -1.005441829	 -3.432764429	 0.888922590
H	 0.226582171	 -2.503068429	 -0.000100410
F	 1.798660000	 -0.304510000	 0.000167000
C	 1.627343000	 1.070432000	 0.000107000
H	 0.564776000	 1.293985000	 0.000086000
H	 2.096654000	 1.483171000	 -0.888816000
H	 2.096634000	 1.483247000	 0.889004000
