10
0  1  0  1  0  1   5   5 -1.19143 -1.14578 -1.10659 -1.15224 -1.11979 -1.13568 -0.85859 -0.85648 -0.84969 -1.14480 -0.83467  0.26883 -0.09677 -0.48220
F	 -1.782759290	 -1.858400689	 0.000081100
C	 -0.947024290	 -2.963549689	 -0.000006900
H	 -1.147202290	 -3.555654689	 -0.888898900
H	 -1.147028290	 -3.555664689	 0.888918100
H	 0.084995710	 -2.625968689	 -0.000104900
F	 1.798660000	 -0.304510000	 0.000167000
C	 1.627343000	 1.070432000	 0.000107000
H	 0.564776000	 1.293985000	 0.000086000
H	 2.096654000	 1.483171000	 -0.888816000
H	 2.096634000	 1.483247000	 0.889004000
