10
0  1  0  1  0  1   5   5 -2.06995 -1.95946 -1.87753 -1.98802 -1.90504 -1.94968 -1.18383 -1.17344 -1.16554 -1.95102 -1.67422  1.06736 -0.23417 -1.10999
F	 -1.436896950	 0.374434452	 1.784746267
C	 -1.253428950	 -0.998146548	 1.831311267
H	 -2.088249950	 -1.481613548	 1.331187267
H	 -1.215371950	 -1.312710548	 2.870729267
H	 -0.322558950	 -1.247266548	 1.330865267
F	 1.798660000	 -0.304510000	 0.000167000
C	 1.627343000	 1.070432000	 0.000107000
H	 0.564776000	 1.293985000	 0.000086000
H	 2.096654000	 1.483171000	 -0.888816000
H	 2.096634000	 1.483247000	 0.889004000
