10
0  1  0  1  0  1   5   5  3.18036  3.87459  4.08235  3.38811  4.01757  3.62707  7.56383  7.56896  7.50592  3.99638 -11.25655 23.74625 -3.01229 -5.48103
F	 -1.160611514	 0.428068054	 0.375289206
C	 -0.989417514	 -0.946886946	 0.375199206
H	 -1.458860514	 -1.359577946	 -0.513675794
H	 -1.458653514	 -1.359668946	 1.264141206
H	 0.073128486	 -1.170542946	 0.375065206
F	 1.343675000	 -0.392535000	 1.729751000
C	 1.160102000	 0.980036000	 1.776284000
H	 0.229163000	 1.229055000	 1.275917000
H	 1.994835000	 1.463550000	 1.276060000
H	 1.122118000	 1.294633000	 2.815694000
