10
0  1  0  1  0  1   5   5 -2.35311 -2.19286 -2.07964 -2.23989 -2.11283 -2.18426 -1.10353 -1.08908 -1.08428 -2.18192 -2.39828  2.18755 -0.41730 -1.55389
F	 -1.768473501	 0.310349815	 0.000216685
C	 -1.597279501	 -1.064605185	 0.000126685
H	 -2.066722501	 -1.477296185	 -0.888748315
H	 -2.066515501	 -1.477387185	 0.889068685
H	 -0.534733501	 -1.288261185	 -0.000007315
F	 1.798660000	 -0.304510000	 0.000167000
C	 1.627343000	 1.070432000	 0.000107000
H	 0.564776000	 1.293985000	 0.000086000
H	 2.096654000	 1.483171000	 -0.888816000
H	 2.096634000	 1.483247000	 0.889004000
