10
0  1  0  1  0  1   5   5 -1.37643 -1.17631 -1.05336 -1.25348 -1.08172 -1.18405  0.08551  0.09080  0.08361 -1.14112 -2.81537  4.18829 -0.68903 -1.82501
F	 -1.701910430	 0.388324356	 0.000213128
C	 -1.530716430	 -0.986630644	 0.000123128
H	 -2.000159430	 -1.399321644	 -0.888751872
H	 -1.999952430	 -1.399412644	 0.889065128
H	 -0.468170430	 -1.210286644	 -0.000010872
F	 1.313153000	 1.450642000	 0.000091000
C	 0.477317000	 2.555718000	 0.000044000
H	 -0.554670000	 2.218037000	 0.000048000
H	 0.677363000	 3.147811000	 -0.888886000
H	 0.677347000	 3.147876000	 0.888934000
