10
0  1  0  1  0  1   5   5 -1.75764 -1.44144 -1.26596 -1.58216 -1.30792 -1.47113  0.55955  0.57398  0.56293 -1.40062 -4.54546  6.98177 -1.01183 -2.82510
F	 -0.998119259	 0.459413408	 1.526704397
C	 -0.814651259	 -0.913167592	 1.573269397
H	 -1.649472259	 -1.396634592	 1.073145397
H	 -0.776594259	 -1.227731592	 2.612687397
H	 0.116218741	 -1.162287592	 1.072823397
F	 1.798660000	 -0.304510000	 0.000167000
C	 1.627343000	 1.070432000	 0.000107000
H	 0.564776000	 1.293985000	 0.000086000
H	 2.096654000	 1.483171000	 -0.888816000
H	 2.096634000	 1.483247000	 0.889004000
