10
0  1  0  1  0  1   5   5 27.38368 28.92697 28.91057 27.36729 28.80622 27.91163 35.89474 35.87920 35.73056 28.57527 -35.35575 87.48897 -11.99483 -11.56312
F	 -0.745852542	 0.508362674	 0.000205927
C	 -0.574658542	 -0.866592326	 0.000115927
H	 -1.044101542	 -1.279283326	 -0.888759073
H	 -1.043894542	 -1.279374326	 0.889057927
H	 0.487887458	 -1.090248326	 -0.000018073
F	 1.798660000	 -0.304510000	 0.000167000
C	 1.627343000	 1.070432000	 0.000107000
H	 0.564776000	 1.293985000	 0.000086000
H	 2.096654000	 1.483171000	 -0.888816000
H	 2.096634000	 1.483247000	 0.889004000
