10
0  1  0  1  0  1   5   5  2.98544  3.53442  3.64537  3.09640  3.57890  3.28200  6.89897  6.90234  6.85980  3.54568 -8.57864 19.31747 -2.61731 -4.57585
F	 -1.544275666	 0.216836863	 0.000220321
C	 -1.373081666	 -1.158118137	 0.000130321
H	 -1.842524666	 -1.570809137	 -0.888744679
H	 -1.842317666	 -1.570900137	 0.889072321
H	 -0.310535666	 -1.381774137	 -0.000003679
F	 1.341546000	 -2.067270000	 0.000245000
C	 1.880652000	 -0.790876000	 0.000188000
H	 1.072219000	 -0.065990000	 0.000145000
H	 2.493476000	 -0.668096000	 -0.888722000
H	 2.493458000	 -0.668007000	 0.889098000
