10
0  1  0  1  0  1   5   5 -2.33269 -2.10069 -1.95533 -2.18733 -1.99398 -2.10696 -0.60116 -0.58555 -0.58839 -2.08386 -3.37644  4.11505 -0.69197 -2.13050
F	 -1.598036674	 0.343351958	 0.000214892
C	 -1.426842674	 -1.031603042	 0.000124892
H	 -1.896285674	 -1.444294042	 -0.888750108
H	 -1.896078674	 -1.444385042	 0.889066892
H	 -0.364296674	 -1.255259042	 -0.000009108
F	 1.798660000	 -0.304510000	 0.000167000
C	 1.627343000	 1.070432000	 0.000107000
H	 0.564776000	 1.293985000	 0.000086000
H	 2.096654000	 1.483171000	 -0.888816000
H	 2.096634000	 1.483247000	 0.889004000
