10
0  1  0  1  0  1   5   5 -1.79170 -1.44729 -1.27072 -1.61512 -1.31716 -1.49716  0.60624  0.62048  0.60212 -1.41976 -5.00510  7.70943 -1.17686 -2.94723
F	 -1.427599848	 0.376354101	 0.000213099
C	 -1.256405848	 -0.998600899	 0.000123099
H	 -1.725848848	 -1.411291899	 -0.888751901
H	 -1.725641848	 -1.411382899	 0.889065099
H	 -0.193859848	 -1.222256899	 -0.000010901
F	 1.798660000	 -0.304510000	 0.000167000
C	 1.627343000	 1.070432000	 0.000107000
H	 0.564776000	 1.293985000	 0.000086000
H	 2.096654000	 1.483171000	 -0.888816000
H	 2.096634000	 1.483247000	 0.889004000
