10
0  1  0  1  0  1   5   5 -2.25664 -2.10594 -1.99624 -2.14695 -2.02622 -2.09361 -1.03689 -1.02291 -1.01720 -2.08872 -2.21879  2.00541 -0.37163 -1.50371
F	 -1.290715310	 0.402972893	 -1.698309415
C	 -1.107248310	 -0.969602107	 -1.745054415
H	 -1.069431310	 -1.284061107	 -2.784513415
H	 -1.941950310	 -1.453124107	 -1.244785415
H	 -0.176261310	 -1.218766107	 -1.244847415
F	 1.798660000	 -0.304510000	 0.000167000
C	 1.627343000	 1.070432000	 0.000107000
H	 0.564776000	 1.293985000	 0.000086000
H	 2.096654000	 1.483171000	 -0.888816000
H	 2.096634000	 1.483247000	 0.889004000
