10
0  1  0  1  0  1   5   5  3.17960  3.87383  4.08161  3.38739  4.01682  3.62634  7.56303  7.56816  7.50512  3.99562 -11.25573 23.74406 -3.01182 -5.48089
F	 -0.705600799	 0.516066046	 1.354676484
C	 -0.522132799	 -0.856514954	 1.401241484
H	 -1.356953799	 -1.339981954	 0.901117484
H	 -0.484075799	 -1.171078954	 2.440659484
H	 0.408737201	 -1.105634954	 0.900795484
F	 1.798660000	 -0.304510000	 0.000167000
C	 1.627343000	 1.070432000	 0.000107000
H	 0.564776000	 1.293985000	 0.000086000
H	 2.096654000	 1.483171000	 -0.888816000
H	 2.096634000	 1.483247000	 0.889004000
