10
0  1  0  1  0  1   5   5 24.38485 25.82556 25.88626 24.44556 25.78055 24.95325 32.58052 32.56478 32.43322 25.62672 -31.45092 77.51964 -9.59168 -10.85032
F	 -0.868091111	 0.484669402	 -0.546896485
C	 -0.696897111	 -0.890285598	 -0.546986485
H	 -1.166340111	 -1.302976598	 -1.435861485
H	 -1.166133111	 -1.303067598	 0.341955515
H	 0.365648889	 -1.113941598	 -0.547120485
F	 1.343668000	 -0.392687000	 -1.729407000
C	 1.160094000	 0.979880000	 -1.776060000
H	 0.229144000	 1.228940000	 -1.275734000
H	 1.122133000	 1.294388000	 -2.815499000
H	 1.994816000	 1.463437000	 -1.275859000
