10
0  1  0  1  0  1   5   5 -2.24356 -2.02836 -1.88627 -2.10147 -1.92085 -2.02514 -0.56235 -0.54686 -0.54655 -2.00151 -3.09342  3.74988 -0.60562 -2.05236
F	 -1.144378489	 0.431087089	 1.612718354
C	 -0.960910489	 -0.941493911	 1.659283354
H	 -1.795731489	 -1.424960911	 1.159159354
H	 -0.922853489	 -1.256057911	 2.698701354
H	 -0.030040489	 -1.190613911	 1.158837354
F	 1.798660000	 -0.304510000	 0.000167000
C	 1.627343000	 1.070432000	 0.000107000
H	 0.564776000	 1.293985000	 0.000086000
H	 2.096654000	 1.483171000	 -0.888816000
H	 2.096634000	 1.483247000	 0.889004000
