10
0  1  0  1  0  1   5   5 -1.20072 -1.11948 -1.06035 -1.14159 -1.09145 -1.11880 -0.51729 -0.51198 -0.50811 -1.13172 -0.85342  0.63618 -0.12596 -0.78851
F	 -2.499514146	 0.546521921	 0.000207839
C	 -2.328320146	 -0.828433079	 0.000117839
H	 -2.797763146	 -1.241124079	 -0.888757161
H	 -2.797556146	 -1.241215079	 0.889059839
H	 -1.265774146	 -1.052089079	 -0.000016161
F	 1.341546000	 -2.067270000	 0.000245000
C	 1.880652000	 -0.790876000	 0.000188000
H	 1.072219000	 -0.065990000	 0.000145000
H	 2.493476000	 -0.668096000	 -0.888722000
H	 2.493458000	 -0.668007000	 0.889098000
