10
0  1  0  1  0  1   5   5  3.18160  3.87595  4.08370  3.38936  4.01891  3.62835  7.56558  7.57071  7.50765  3.99775 -11.25841 23.75067 -3.01284 -5.48166
F	 -1.160613101	 0.428035090	 -0.374868554
C	 -0.989419101	 -0.946919910	 -0.374958554
H	 -1.458862101	 -1.359610910	 -1.263833554
H	 -1.458655101	 -1.359701910	 0.513983446
H	 0.073126899	 -1.170575910	 -0.375092554
F	 1.343668000	 -0.392687000	 -1.729407000
C	 1.160094000	 0.979880000	 -1.776060000
H	 0.229144000	 1.228940000	 -1.275734000
H	 1.122133000	 1.294388000	 -2.815499000
H	 1.994816000	 1.463437000	 -1.275859000
