10
0  1  0  1  0  1   5   5 -1.38581 -1.32322 -1.26873 -1.33131 -1.28390 -1.30876 -0.90367 -0.89962 -0.89358 -1.32043 -1.04683  0.53802 -0.15034 -0.66127
F	 -2.126669884	 0.019623552	 0.000230169
C	 -1.955475884	 -1.355331448	 0.000140169
H	 -2.424918884	 -1.768022448	 -0.888734831
H	 -2.424711884	 -1.768113448	 0.889082169
H	 -0.892929884	 -1.578987448	 0.000006169
F	 1.313153000	 1.450642000	 0.000091000
C	 0.477317000	 2.555718000	 0.000044000
H	 -0.554670000	 2.218037000	 0.000048000
H	 0.677363000	 3.147811000	 -0.888886000
H	 0.677347000	 3.147876000	 0.888934000
