10
0  1  0  1  0  1   5   5 -1.55746 -1.46755 -1.39332 -1.48323 -1.41123 -1.45115 -0.85876 -0.85325 -0.84920 -1.46122 -1.37319  1.07027 -0.24149 -0.91681
F	 -1.499586368	 -1.612600170	 0.000090080
C	 -0.663851368	 -2.717749170	 0.000002080
H	 -0.864029368	 -3.309854170	 -0.888889920
H	 -0.863855368	 -3.309864170	 0.888927080
H	 0.368168632	 -2.380168170	 -0.000095920
F	 1.798660000	 -0.304510000	 0.000167000
C	 1.627343000	 1.070432000	 0.000107000
H	 0.564776000	 1.293985000	 0.000086000
H	 2.096654000	 1.483171000	 -0.888816000
H	 2.096634000	 1.483247000	 0.889004000
