10
0  1  0  1  0  1   5   5 -2.24351 -2.02825 -1.88615 -2.10141 -1.92073 -2.02506 -0.56204 -0.54655 -0.54624 -2.00140 -3.09396  3.75097 -0.60577 -2.05264
F	 -1.599396087	 0.343083621	 -0.116826658
C	 -1.428202087	 -1.031871379	 -0.116916658
H	 -1.897645087	 -1.444562379	 -1.005791658
H	 -1.897438087	 -1.444653379	 0.772025342
H	 -0.365656087	 -1.255527379	 -0.117050658
F	 1.343668000	 -0.392687000	 -1.729407000
C	 1.160094000	 0.979880000	 -1.776060000
H	 0.229144000	 1.228940000	 -1.275734000
H	 1.122133000	 1.294388000	 -2.815499000
H	 1.994816000	 1.463437000	 -1.275859000
