10
0  1  0  1  0  1   5   5 -2.15541 -2.03945 -1.95453 -2.07050 -1.98459 -2.03082 -1.25241 -1.24147 -1.23332 -2.03520 -1.79206  1.15791 -0.25852 -1.14253
F	 -1.938910327	 0.277347672	 0.000218478
C	 -1.767716327	 -1.097607328	 0.000128478
H	 -2.237159327	 -1.510298328	 -0.888746522
H	 -2.236952327	 -1.510389328	 0.889070478
H	 -0.705170327	 -1.321263328	 -0.000005522
F	 1.798660000	 -0.304510000	 0.000167000
C	 1.627343000	 1.070432000	 0.000107000
H	 0.564776000	 1.293985000	 0.000086000
H	 2.096654000	 1.483171000	 -0.888816000
H	 2.096634000	 1.483247000	 0.889004000
