10
0  1  0  1  0  1   5   5 -1.43914 -1.37537 -1.31126 -1.37502 -1.32419 -1.35102 -0.94011 -0.93683 -0.93076 -1.36534 -1.00931  0.46610 -0.12396 -0.69817
F	 0.000000000	 0.000000000	 0.000000000
C	 -1.383020000	 0.000010000	 0.000000000
H	 -1.737420000	 1.027050000	 -0.000000000
H	 -1.737430000	 -0.513500000	 0.889440000
H	 -1.737430000	 -0.513500000	 -0.889440000
F	 4.020214909	 -2.321068278	 0.000000000
C	 2.822184909	 -1.629378278	 -0.000000000
H	 3.024994909	 -0.562438278	 -0.000000000
H	 2.255944909	 -1.894478278	 0.888020000
H	 2.255944909	 -1.894478278	 -0.888030000
