10
0  1  0  1  0  1   5   5 -1.10229 -1.05979 -1.01900 -1.06150 -1.02867 -1.04514 -0.84401 -0.84082 -0.83487 -1.05054 -0.76770  0.21620 -0.08063 -0.41841
F	 -2.592170000	 -0.000010000	 1.496590000
C	 -3.789900000	 0.000010000	 2.188100000
H	 -4.096810000	 1.027040000	 2.365300000
H	 -3.652100000	 -0.513510000	 3.135580000
H	 -4.541540000	 -0.513510000	 1.595030000
F	 1.940585455	 0.000002150	 -0.321708483
C	 0.557215455	 0.000002150	 -0.321708483
H	 0.199385455	 1.025402150	 -0.321708483
H	 0.199385455	 -0.512697850	 0.566311517
H	 0.199385455	 -0.512697850	 -1.209728483
