10
0  1  0  1  0  1   5   5  0.39826  0.72926  0.89222  0.56123  0.85297  0.68529  2.81758  2.82202  2.82435  1.05787 -4.13006  9.12533 -0.96890 -2.96850
F	 0.000000000	 0.000000000	 0.000000000
C	 -1.383020000	 0.000010000	 0.000000000
H	 -1.737420000	 1.027050000	 -0.000000000
H	 -1.737430000	 -0.513500000	 0.889440000
H	 -1.737430000	 -0.513500000	 -0.889440000
F	 3.853858936	 0.000008254	 0.000000000
C	 2.470498936	 0.000008254	 -0.000000000
H	 2.112658936	 1.025408254	 -0.000000000
H	 2.112668936	 -0.512701746	 0.888020000
H	 2.112668936	 -0.512701746	 -0.888030000
