10
0  1  0  1  0  1   5   5  9.32294  9.96067 10.07845  9.44072 10.02751  9.67236 13.59205 13.59079 13.55306 10.45657 -12.02606 31.13192 -3.49732 -5.15198
F	 -2.592170000	 1.496580000	 0.000000000
C	 -3.789900000	 2.188100000	 0.000000000
H	 -3.583290000	 3.254740000	 -0.000000000
H	 -4.353580000	 1.920590000	 0.889440000
H	 -4.353580000	 1.920590000	 -0.889440000
F	 0.819469338	 0.325566013	 0.000000000
C	 -0.563900662	 0.325566013	 0.000000000
H	 -0.921730662	 1.350966013	 0.000000000
H	 -0.921730662	 -0.187133987	 0.888020000
H	 -0.921730662	 -0.187133987	 -0.888020000
