10
0  1  0  1  0  1   5   5 -1.56641 -1.48160 -1.39910 -1.48390 -1.41553 -1.45257 -0.87474 -0.87131 -0.86541 -1.46084 -1.21787  0.85783 -0.17811 -0.92269
F	 0.000000000	 0.000000000	 0.000000000
C	 -1.383020000	 0.000010000	 0.000000000
H	 -1.737420000	 1.027050000	 -0.000000000
H	 -1.737430000	 -0.513500000	 0.889440000
H	 -1.737430000	 -0.513500000	 -0.889440000
F	 3.885384482	 0.000010367	 -2.243224785
C	 2.687354482	 0.000010367	 -1.551544785
H	 2.377464482	 1.025410367	 -1.372624785
H	 2.821474482	 -0.512699633	 -0.603574785
H	 1.933444482	 -0.512699633	 -2.141684785
