10
0  1  0  1  0  1   5   5 -1.20046 -1.06171 -0.95088 -1.08963 -0.96794 -1.03687 -0.13591 -0.12792 -0.12455 -1.00397 -1.96021  2.73610 -0.42266 -1.35721
F	 -2.592170000	 1.496580000	 0.000000000
C	 -3.789900000	 2.188100000	 0.000000000
H	 -3.583290000	 3.254740000	 -0.000000000
H	 -4.353580000	 1.920590000	 0.889440000
H	 -4.353580000	 1.920590000	 -0.889440000
F	 1.398974863	 -0.009009412	 0.000000000
C	 0.015604863	 -0.009009412	 0.000000000
H	 -0.342225137	 1.016390588	 0.000000000
H	 -0.342225137	 -0.521709412	 0.888020000
H	 -0.342225137	 -0.521709412	 -0.888020000
