10
0  1  0  1  0  1   5   5 -1.35621 -1.25923 -1.17071 -1.26769 -1.18376 -1.23003 -0.61145 -0.60325 -0.59791 -1.22634 -1.43299  1.46680 -0.26846 -0.99170
F	 -2.592170000	 1.496580000	 0.000000000
C	 -3.789900000	 2.188100000	 0.000000000
H	 -3.583290000	 3.254740000	 -0.000000000
H	 -4.353580000	 1.920590000	 0.889440000
H	 -4.353580000	 1.920590000	 -0.889440000
F	 1.543851245	 -0.092653268	 0.000000000
C	 0.160481245	 -0.092653268	 0.000000000
H	 -0.197348755	 0.932746732	 0.000000000
H	 -0.197348755	 -0.605353268	 0.888020000
H	 -0.197348755	 -0.605353268	 -0.888020000
