10
0  1  0  1  0  1   5   5  0.47168  0.76238  0.93183  0.64114  0.89875  0.75044  2.69122  2.69853  2.70000  0.99974 -3.98670  8.48119 -0.88212 -2.61263
F	 -2.592160000	 -1.496590000	 0.000000000
C	 -3.789900000	 -2.188100000	 0.000000000
H	 -4.610340000	 -1.475850000	 -0.000000000
H	 -3.840070000	 -2.810020000	 0.889440000
H	 -3.840070000	 -2.810020000	 -0.889440000
F	 1.049396106	 -0.192820656	 0.000000000
C	 -0.333973894	 -0.192820656	 0.000000000
H	 -0.691803894	 0.832579344	 0.000000000
H	 -0.691803894	 -0.705520656	 0.888020000
H	 -0.691803894	 -0.705520656	 -0.888020000
