10
0  1  0  1  0  1   5   5 -1.35933 -1.28450 -1.21249 -1.28732 -1.22936 -1.25988 -0.79309 -0.78936 -0.78227 -1.25787 -1.07199  0.73209 -0.15745 -0.76052
F	 -2.592160000	 -1.496590000	 0.000000000
C	 -3.789900000	 -2.188100000	 0.000000000
H	 -4.610340000	 -1.475850000	 -0.000000000
H	 -3.840070000	 -2.810020000	 0.889440000
H	 -3.840070000	 -2.810020000	 -0.889440000
F	 1.613942632	 0.133121681	 0.000000000
C	 0.230572632	 0.133121681	 0.000000000
H	 -0.127257368	 1.158521681	 0.000000000
H	 -0.127257368	 -0.379578319	 0.888020000
H	 -0.127257368	 -0.379578319	 -0.888020000
