10
0  1  0  1  0  1   5   5  8.84182  9.55124  9.68031  8.97089  9.61233  9.23273 13.37460 13.37355 13.35279 10.26172 -10.53893 29.08048 -2.67323 -5.60659
F	 0.000000000	 0.000000000	 0.000000000
C	 -1.383020000	 0.000010000	 0.000000000
H	 -1.737420000	 1.027050000	 -0.000000000
H	 -1.737430000	 -0.513500000	 0.889440000
H	 -1.737430000	 -0.513500000	 -0.889440000
F	 3.545046569	 0.000007222	 0.000000000
C	 2.161686569	 0.000007222	 -0.000000000
H	 1.803846569	 1.025407222	 -0.000000000
H	 1.803856569	 -0.512702778	 0.888020000
H	 1.803856569	 -0.512702778	 -0.888030000
