10
0  1  0  1  0  1   5   5 -1.28915 -1.23995 -1.19035 -1.23955 -1.20029 -1.22056 -0.93034 -0.92721 -0.92146 -1.23404 -0.86371  0.25282 -0.08925 -0.53390
F	 0.000000000	 0.000000000	 0.000000000
C	 -1.383020000	 0.000010000	 0.000000000
H	 -1.737420000	 1.027050000	 -0.000000000
H	 -1.737430000	 -0.513500000	 0.889440000
H	 -1.737430000	 -0.513500000	 -0.889440000
F	 4.154604666	 -2.398657720	 0.000000000
C	 2.956574666	 -1.706967720	 -0.000000000
H	 3.159384666	 -0.640027720	 -0.000000000
H	 2.390334666	 -1.972067720	 0.888020000
H	 2.390334666	 -1.972067720	 -0.888030000
