10
0  1  0  1  0  1   5   5 -1.11943 -1.07497 -1.03282 -1.07729 -1.04430 -1.06055 -0.84223 -0.84060 -0.83392 -1.06536 -0.76384  0.21021 -0.07833 -0.43340
F	 -2.592160000	 -1.496590000	 0.000000000
C	 -3.789900000	 -2.188100000	 0.000000000
H	 -4.610340000	 -1.475850000	 -0.000000000
H	 -3.840070000	 -2.810020000	 0.889440000
H	 -3.840070000	 -2.810020000	 -0.889440000
F	 1.896215895	 0.296092849	 0.000000000
C	 0.512845895	 0.296092849	 0.000000000
H	 0.155015895	 1.321492849	 0.000000000
H	 0.155015895	 -0.216607151	 0.888020000
H	 0.155015895	 -0.216607151	 -0.888020000
