10
0  1  0  1  0  1   5   5 -1.50280 -1.34081 -1.21753 -1.37953 -1.24196 -1.31929 -0.22119 -0.21653 -0.21132 -1.22632 -1.98910  2.77669 -0.39346 -1.62045
F	 0.000000000	 0.000000000	 0.000000000
C	 -1.383020000	 0.000010000	 0.000000000
H	 -1.737420000	 1.027050000	 -0.000000000
H	 -1.737430000	 -0.513500000	 0.889440000
H	 -1.737430000	 -0.513500000	 -0.889440000
F	 4.162671303	 0.000009285	 0.000000000
C	 2.779311303	 0.000009285	 -0.000000000
H	 2.421471303	 1.025409285	 -0.000000000
H	 2.421481303	 -0.512700715	 0.888020000
H	 2.421481303	 -0.512700715	 -0.888030000
