10
0  1  0  1  0  1   5   5  8.39969  9.03692  9.20782  8.57058  9.15371  8.80551 12.75038 12.75340 12.72713  9.59927 -10.62480 27.74756 -2.45377 -5.06972
F	 -2.592160000	 -1.496590000	 0.000000000
C	 -3.789900000	 -2.188100000	 0.000000000
H	 -4.610340000	 -1.475850000	 -0.000000000
H	 -3.840070000	 -2.810020000	 0.889440000
H	 -3.840070000	 -2.810020000	 -0.889440000
F	 0.767122842	 -0.355791824	 0.000000000
C	 -0.616247158	 -0.355791824	 0.000000000
H	 -0.974077158	 0.669608176	 0.000000000
H	 -0.974077158	 -0.868491824	 0.888020000
H	 -0.974077158	 -0.868491824	 -0.888020000
