10
0  1  0  1  0  1   5   5 -1.47357 -1.31301 -1.18439 -1.34495 -1.20940 -1.28608 -0.16954 -0.16533 -0.16134 -1.22154 -2.04794  2.86491 -0.39635 -1.64216
F	 0.000000000	 0.000000000	 0.000000000
C	 -1.383020000	 0.000010000	 0.000000000
H	 -1.737420000	 1.027050000	 -0.000000000
H	 -1.737430000	 -0.513500000	 0.889440000
H	 -1.737430000	 -0.513500000	 -0.889440000
F	 3.616649034	 0.000009330	 -2.088070306
C	 2.418619034	 0.000009330	 -1.396390306
H	 2.108729034	 1.025409330	 -1.217470306
H	 2.552739034	 -0.512700670	 -0.448420306
H	 1.664709034	 -0.512700670	 -1.986530306
