10
0  1  0  1  0  1   5   5 -1.61429 -1.49875 -1.39453 -1.51007 -1.41491 -1.46778 -0.66272 -0.65894 -0.65384 -1.45364 -1.53729  1.57236 -0.26217 -1.22655
F	 0.000000000	 0.000000000	 0.000000000
C	 -1.383020000	 0.000010000	 0.000000000
H	 -1.737420000	 1.027050000	 -0.000000000
H	 -1.737430000	 -0.513500000	 0.889440000
H	 -1.737430000	 -0.513500000	 -0.889440000
F	 3.751016758	 0.000009849	 -2.165647546
C	 2.552986758	 0.000009849	 -1.473967546
H	 2.243096758	 1.025409849	 -1.295047546
H	 2.687106758	 -0.512700151	 -0.525997546
H	 1.799076758	 -0.512700151	 -2.064107546
