10
0  1  0  1  0  1   5   5  0.70970  1.00789  1.15724  0.85904  1.12677  0.96756  2.85472  2.86038  2.84988  1.20674 -4.41931  9.38691 -1.15270 -2.60816
F	 -2.592170000	 1.496580000	 0.000000000
C	 -3.789900000	 2.188100000	 0.000000000
H	 -3.583290000	 3.254740000	 -0.000000000
H	 -4.353580000	 1.920590000	 0.889440000
H	 -4.353580000	 1.920590000	 -0.889440000
F	 1.109222101	 0.158278301	 0.000000000
C	 -0.274147899	 0.158278301	 0.000000000
H	 -0.631977899	 1.183678301	 0.000000000
H	 -0.631977899	 -0.354421699	 0.888020000
H	 -0.631977899	 -0.354421699	 -0.888020000
