10
0  1  0  1  0  1   5   5 -1.60155 -1.51602 -1.43639 -1.52192 -1.45218 -1.48970 -0.93482 -0.93113 -0.92451 -1.47993 -1.21704  0.82251 -0.17704 -0.90835
F	 0.000000000	 0.000000000	 0.000000000
C	 -1.383020000	 0.000010000	 0.000000000
H	 -1.737420000	 1.027050000	 -0.000000000
H	 -1.737430000	 -0.513500000	 0.889440000
H	 -1.737430000	 -0.513500000	 -0.889440000
F	 4.471483670	 0.000010317	 0.000000000
C	 3.088123670	 0.000010317	 -0.000000000
H	 2.730283670	 1.025410317	 -0.000000000
H	 2.730293670	 -0.512699683	 0.888020000
H	 2.730293670	 -0.512699683	 -0.888030000
