10
0  1  0  1  0  1   5   5 -1.61541 -1.49993 -1.39530 -1.51078 -1.41573 -1.46848 -0.66135 -0.65763 -0.65242 -1.45436 -1.53617  1.57394 -0.26305 -1.22909
F	 0.000000000	 0.000000000	 0.000000000
C	 -1.383020000	 0.000010000	 0.000000000
H	 -1.737420000	 1.027050000	 -0.000000000
H	 -1.737430000	 -0.513500000	 0.889440000
H	 -1.737430000	 -0.513500000	 -0.889440000
F	 3.750563650	 2.165401629	 0.000000000
C	 2.552533650	 1.473711629	 -0.000000000
H	 1.729943650	 2.182821629	 -0.000000000
H	 2.498993650	 0.850781629	 0.888020000
H	 2.498993650	 0.850791629	 -0.888030000
