10
0  1  0  1  0  1   5   5 -1.26844 -1.12818 -1.01036 -1.15061 -1.03308 -1.09831 -0.14000 -0.13364 -0.12721 -1.04655 -1.82313  2.51750 -0.35318 -1.38774
F	 -2.592160000	 -1.496590000	 0.000000000
C	 -3.789900000	 -2.188100000	 0.000000000
H	 -4.610340000	 -1.475850000	 -0.000000000
H	 -3.840070000	 -2.810020000	 0.889440000
H	 -3.840070000	 -2.810020000	 -0.889440000
F	 1.331669369	 -0.029849488	 0.000000000
C	 -0.051700631	 -0.029849488	 0.000000000
H	 -0.409530631	 0.995550512	 0.000000000
H	 -0.409530631	 -0.542549488	 0.888020000
H	 -0.409530631	 -0.542549488	 -0.888020000
