10
0  1  0  1  0  1   5   5 -1.33870 -1.26689 -1.19683 -1.26864 -1.21004 -1.24118 -0.80029 -0.79451 -0.78804 -1.24394 -1.09263  0.75753 -0.16707 -0.74176
F	 -2.592170000	 -0.000010000	 1.496590000
C	 -3.789900000	 0.000010000	 2.188100000
H	 -4.096810000	 1.027040000	 2.365300000
H	 -3.652100000	 -0.513510000	 3.135580000
H	 -4.541540000	 -0.513510000	 1.595030000
F	 1.654277687	 0.000001045	 -0.156408621
C	 0.270907687	 0.000001045	 -0.156408621
H	 -0.086922313	 1.025401045	 -0.156408621
H	 -0.086922313	 -0.512698955	 0.731611379
H	 -0.086922313	 -0.512698955	 -1.044428621
