10
0  1  0  1  0  1   5   5  0.38368  0.71187  0.88308  0.55489  0.84403  0.67649  2.80956  2.81383  2.81293  1.00364 -4.32805  9.30745 -0.98011 -2.99566
F	 0.000000000	 0.000000000	 0.000000000
C	 -1.383020000	 0.000010000	 0.000000000
H	 -1.737420000	 1.027050000	 -0.000000000
H	 -1.737430000	 -0.513500000	 0.889440000
H	 -1.737430000	 -0.513500000	 -0.889440000
F	 3.348266121	 -1.933121069	 0.000000000
C	 2.150236121	 -1.241431069	 -0.000000000
H	 2.353046121	 -0.174491069	 -0.000000000
H	 1.583996121	 -1.506531069	 0.888020000
H	 1.583996121	 -1.506531069	 -0.888030000
