10
0  1  0  1  0  1   5   5  0.58446  0.87861  1.03693  0.74278  1.00442  0.85092  2.75839  2.76444  2.75914  1.09321 -4.20292  8.91652 -1.01877 -2.60162
F	 -2.592170000	 -0.000010000	 -1.496590000
C	 -3.789900000	 0.000010000	 -2.188100000
H	 -4.096810000	 1.027040000	 -2.365300000
H	 -4.541540000	 -0.513510000	 -1.595030000
H	 -3.652110000	 -0.513510000	 -3.135580000
F	 1.081662149	 -0.000001164	 -0.174191103
C	 -0.301707851	 -0.000001164	 -0.174191103
H	 -0.659537851	 1.025398836	 -0.174191103
H	 -0.659537851	 -0.512701164	 0.713828897
H	 -0.659537851	 -0.512701164	 -1.062211103
