10
0  1  0  1  0  1   5   5 -1.47357 -1.31302 -1.18440 -1.34495 -1.20941 -1.28609 -0.16955 -0.16534 -0.16135 -1.22154 -2.04795  2.86492 -0.39635 -1.64216
F	 0.000000000	 0.000000000	 0.000000000
C	 -1.383020000	 0.000010000	 0.000000000
H	 -1.737420000	 1.027050000	 -0.000000000
H	 -1.737430000	 -0.513500000	 0.889440000
H	 -1.737430000	 -0.513500000	 -0.889440000
F	 3.616649034	 0.000009330	 2.088070306
C	 2.418619034	 0.000009330	 1.396390306
H	 2.108729034	 1.025409330	 1.217470306
H	 1.664709034	 -0.512700670	 1.986520306
H	 2.552739034	 -0.512700670	 0.448420306
