10
0  1  0  1  0  1   5   5 -1.24936 -1.19239 -1.13719 -1.19416 -1.15139 -1.17314 -0.85149 -0.84898 -0.84192 -1.17675 -0.88902  0.39270 -0.10944 -0.57099
F	 -2.592160000	 -1.496590000	 0.000000000
C	 -3.789900000	 -2.188100000	 0.000000000
H	 -4.610340000	 -1.475850000	 -0.000000000
H	 -3.840070000	 -2.810020000	 0.889440000
H	 -3.840070000	 -2.810020000	 -0.889440000
F	 1.755079264	 0.214607265	 0.000000000
C	 0.371709264	 0.214607265	 0.000000000
H	 0.013879264	 1.240007265	 0.000000000
H	 0.013879264	 -0.298092735	 0.888020000
H	 0.013879264	 -0.298092735	 -0.888020000
