10
0  1  0  1  0  1   5   5 -1.09196 -1.05059 -1.01070 -1.05207 -1.01949 -1.03606 -0.84788 -0.84365 -0.83828 -1.04236 -0.77300  0.22176 -0.08256 -0.40857
F	 -2.592170000	 1.496580000	 0.000000000
C	 -3.789900000	 2.188100000	 0.000000000
H	 -3.583290000	 3.254740000	 -0.000000000
H	 -4.353580000	 1.920590000	 0.889440000
H	 -4.353580000	 1.920590000	 -0.889440000
F	 1.978480389	 -0.343584836	 0.000000000
C	 0.595110389	 -0.343584836	 0.000000000
H	 0.237280389	 0.681815164	 0.000000000
H	 0.237280389	 -0.856284836	 0.888020000
H	 0.237280389	 -0.856284836	 -0.888020000
