10
0  1  0  1  0  1   5   5 -1.47502 -1.41084 -1.34845 -1.41264 -1.36086 -1.38788 -0.99904 -0.99570 -0.98880 -1.38925 -1.02160  0.44468 -0.12364 -0.68869
F	 0.000000000	 0.000000000	 0.000000000
C	 -1.383020000	 0.000010000	 0.000000000
H	 -1.737420000	 1.027050000	 -0.000000000
H	 -1.737430000	 -0.513500000	 0.889440000
H	 -1.737430000	 -0.513500000	 -0.889440000
F	 4.625889853	 0.000010833	 0.000000000
C	 3.242529853	 0.000010833	 -0.000000000
H	 2.884689853	 1.025410833	 -0.000000000
H	 2.884699853	 -0.512699167	 0.888020000
H	 2.884699853	 -0.512699167	 -0.888030000
