10
0  1  0  1  0  1   5   5 -1.43976 -1.37606 -1.31169 -1.37539 -1.32467 -1.35139 -0.93942 -0.93620 -0.93003 -1.36603 -1.00826  0.46630 -0.12441 -0.69967
F	 0.000000000	 0.000000000	 0.000000000
C	 -1.383020000	 0.000010000	 0.000000000
H	 -1.737420000	 1.027050000	 -0.000000000
H	 -1.737430000	 -0.513500000	 0.889440000
H	 -1.737430000	 -0.513500000	 -0.889440000
F	 4.019752207	 0.000010886	 2.320802024
C	 2.821722207	 0.000010886	 1.629122024
H	 2.511832207	 1.025410886	 1.450202024
H	 2.067812207	 -0.512699114	 2.219252024
H	 2.955842207	 -0.512699114	 0.681152024
