10
0  1  0  1  0  1   5   5 -1.47478 -1.31421 -1.18509 -1.34566 -1.21019 -1.28679 -0.16734 -0.16320 -0.15912 -1.22205 -2.04700  2.86783 -0.39747 -1.64541
F	 0.000000000	 0.000000000	 0.000000000
C	 -1.383020000	 0.000010000	 0.000000000
H	 -1.737420000	 1.027050000	 -0.000000000
H	 -1.737430000	 -0.513500000	 0.889440000
H	 -1.737430000	 -0.513500000	 -0.889440000
F	 3.616219774	 2.087837859	 0.000000000
C	 2.418189774	 1.396147859	 -0.000000000
H	 1.595599774	 2.105257859	 -0.000000000
H	 2.364649774	 0.773217859	 0.888020000
H	 2.364649774	 0.773227859	 -0.888030000
