10
0  1  0  1  0  1   5   5  0.38336  0.71205  0.88394  0.55525  0.84459  0.67691  2.81568  2.81986  2.81892  1.00522 -4.32865  9.31714 -0.98204 -3.00122
F	 0.000000000	 0.000000000	 0.000000000
C	 -1.383020000	 0.000010000	 0.000000000
H	 -1.737420000	 1.027050000	 -0.000000000
H	 -1.737430000	 -0.513500000	 0.889440000
H	 -1.737430000	 -0.513500000	 -0.889440000
F	 3.347913586	 0.000008294	 1.932915828
C	 2.149883586	 0.000008294	 1.241235828
H	 1.839993586	 1.025408294	 1.062315828
H	 1.395973586	 -0.512701706	 1.831365828
H	 2.284003586	 -0.512701706	 0.293265828
