10
0  1  0  1  0  1   5   5  8.80688  9.44235  9.58580  8.95032  9.53291  9.18257 13.10481 13.10513 13.07306  9.97296 -11.31664 29.35044 -2.97164 -5.08920
F	 -2.592170000	 -0.000010000	 -1.496590000
C	 -3.789900000	 0.000010000	 -2.188100000
H	 -4.096810000	 1.027040000	 -2.365300000
H	 -4.541540000	 -0.513510000	 -1.595030000
H	 -3.652110000	 -0.513510000	 -3.135580000
F	 0.795354381	 -0.000002268	 -0.339490965
C	 -0.588015619	 -0.000002268	 -0.339490965
H	 -0.945845619	 1.025397732	 -0.339490965
H	 -0.945845619	 -0.512702268	 0.548529035
H	 -0.945845619	 -0.512702268	 -1.227510965
