10
0  1  0  1  0  1   5   5 -1.44042 -1.37680 -1.31218 -1.37580 -1.32520 -1.35180 -0.93874 -0.93560 -0.92932 -1.36676 -1.00727  0.46658 -0.12489 -0.70118
F	 0.000000000	 0.000000000	 0.000000000
C	 -1.383020000	 0.000010000	 0.000000000
H	 -1.737420000	 1.027050000	 -0.000000000
H	 -1.737430000	 -0.513500000	 0.889440000
H	 -1.737430000	 -0.513500000	 -0.889440000
F	 4.019251403	 2.320529169	 0.000000000
C	 2.821221403	 1.628839169	 -0.000000000
H	 1.998631403	 2.337949169	 -0.000000000
H	 2.767681403	 1.005909169	 0.888020000
H	 2.767681403	 1.005919169	 -0.888030000
