10
0  1  0  1  0  1   5   5 -1.28957 -1.24040 -1.19061 -1.23977 -1.20062 -1.22079 -0.92976 -0.92671 -0.92087 -1.23454 -0.86280  0.25287 -0.08957 -0.53505
F	 0.000000000	 0.000000000	 0.000000000
C	 -1.383020000	 0.000010000	 0.000000000
H	 -1.737420000	 1.027050000	 -0.000000000
H	 -1.737430000	 -0.513500000	 0.889440000
H	 -1.737430000	 -0.513500000	 -0.889440000
F	 4.154119931	 0.000011404	 -2.398379263
C	 2.956089931	 0.000011404	 -1.706699263
H	 2.646199931	 1.025411404	 -1.527779263
H	 3.090209931	 -0.512698596	 -0.758729263
H	 2.202179931	 -0.512698596	 -2.296839263
