10
0  1  0  1  0  1   5   5 -1.64812 -1.53155 -1.43131 -1.54788 -1.45101 -1.50451 -0.72099 -0.71682 -0.71088 -1.46768 -1.51387  1.51525 -0.26061 -1.20844
F	 0.000000000	 0.000000000	 0.000000000
C	 -1.383020000	 0.000010000	 0.000000000
H	 -1.737420000	 1.027050000	 -0.000000000
H	 -1.737430000	 -0.513500000	 0.889440000
H	 -1.737430000	 -0.513500000	 -0.889440000
F	 4.317077486	 0.000009801	 0.000000000
C	 2.933717486	 0.000009801	 -0.000000000
H	 2.575877486	 1.025409801	 -0.000000000
H	 2.575887486	 -0.512700199	 0.888020000
H	 2.575887486	 -0.512700199	 -0.888030000
