10
0  1  0  1  0  1   5   5 -1.23107 -1.09195 -0.97823 -1.11735 -0.99807 -1.06507 -0.13999 -0.13305 -0.12842 -1.02509 -1.89284  2.62311 -0.38866 -1.36670
F	 -2.592170000	 -0.000010000	 1.496590000
C	 -3.789900000	 0.000010000	 2.188100000
H	 -4.096810000	 1.027040000	 2.365300000
H	 -3.652100000	 -0.513510000	 3.135580000
H	 -4.541540000	 -0.513510000	 1.595030000
F	 1.367969918	 -0.000000059	 0.008891241
C	 -0.015400082	 -0.000000059	 0.008891241
H	 -0.373230082	 1.025399941	 0.008891241
H	 -0.373230082	 -0.512700059	 0.896911241
H	 -0.373230082	 -0.512700059	 -0.879128759
