8
0  1  0  1  0  1   5   3  0.02139  0.85745  0.49658 -0.33948  0.36427 -0.05014  5.12532  5.10842  5.09050  1.34352 -12.06497 24.36787 -5.20871 -5.75067
O	 0.030850000	 -0.714670000	 0.642950000
H	 0.191890000	 -1.496470000	 0.111850000
H	 0.000000000	 0.000000000	 0.000000000
Cl	 -0.000000000	 2.057199451	 0.000000000
C	 0.068900000	 1.878559451	 1.775070000
H	 0.190060000	 0.826879451	 2.004270000
H	 0.911380000	 2.454359451	 2.138240000
H	 -0.857570000	 2.258759451	 2.187720000
