8
0  1  0  1  0  1   5   3 -0.56426 -0.52869 -0.50939 -0.54496 -0.52351 -0.53437 -0.26626 -0.26342 -0.25978 -0.53936 -0.27239  0.15227 -0.06039 -0.35885
O	 2.507710000	 0.003560000	 2.191080000
H	 3.446660000	 0.186970000	 2.128360000
H	 2.210620000	 0.000000000	 1.276300000
Cl	 -1.681700427	 0.000000000	 -0.970928633
C	 -1.503060427	 -0.006420000	 0.805461367
H	 -0.451390427	 0.104910000	 1.039601367
H	 -2.078860427	 0.819900000	 1.204021367
H	 -1.883260427	 -0.949550000	 1.178461367
