8
0  1  0  1  0  1   5   3 -2.98079 -2.73607 -2.78989 -3.03461 -2.86663 -2.96587 -1.48716 -1.49484 -1.49987 -2.61972 -2.77227  2.73387 -0.91677 -1.66455
O	 0.030850000	 -0.714670000	 0.642950000
H	 0.191890000	 -1.496470000	 0.111850000
H	 0.000000000	 0.000000000	 0.000000000
Cl	 -0.000000000	 2.243118546	 -1.295063014
C	 0.068900000	 2.975948546	 0.331506986
H	 0.190060000	 2.179778546	 1.055846986
H	 0.911380000	 3.656188546	 0.358116986
H	 -0.857570000	 3.511538546	 0.498766986
