8
0  1  0  1  0  1   5   3 -3.25313 -2.73175 -2.89844 -3.41981 -3.00954 -3.25033 -0.02589 -0.03897 -0.04751 -2.43538 -6.86453 10.51383 -2.46637 -3.61831
O	 0.030850000	 -0.714670000	 0.642950000
H	 0.191890000	 -1.496470000	 0.111850000
H	 0.000000000	 0.000000000	 0.000000000
Cl	 -0.000000000	 2.314349383	 0.000000000
C	 0.068900000	 2.135709383	 1.775070000
H	 0.190060000	 1.084029383	 2.004270000
H	 0.911380000	 2.711509383	 2.138240000
H	 -0.857570000	 2.515909383	 2.187720000
