8
0  1  0  1  0  1   5   3  1.47104  2.24064  1.98765  1.21805  1.87988  1.48703  6.21606  6.20730  6.18305  2.32854 -12.41920 24.19216 -3.86649 -5.57793
O	 0.030850000	 -0.714670000	 0.642950000
H	 0.191890000	 -1.496470000	 0.111850000
H	 0.000000000	 0.000000000	 0.000000000
Cl	 -0.000000000	 2.109780358	 1.218080299
C	 0.068900000	 1.067540358	 2.666020299
H	 0.190060000	 0.042160358	 2.338680299
H	 0.911380000	 1.384620358	 3.268430299
H	 -0.857570000	 1.190480358	 3.213480299
