8
0  1  0  1  0  1   5   3 15.84170 17.21949 16.59145 15.21370 16.44578 15.71455 24.01038 23.99068 23.94582 16.95874 -26.60777 61.97846 -8.73236 -9.67958
O	 0.030850000	 -0.714670000	 0.642950000
H	 0.191890000	 -1.496470000	 0.111850000
H	 0.000000000	 0.000000000	 0.000000000
Cl	 -0.000000000	 1.846057813	 1.065820262
C	 0.068900000	 0.803817813	 2.513760262
H	 0.190060000	 -0.221562187	 2.186420262
H	 0.911380000	 1.120897813	 3.116170262
H	 -0.857570000	 0.926757813	 3.061220262
