8
0  1  0  1  0  1   5   3  5.93351  6.78167  6.30833  5.46017  6.19327  5.76379 11.04254 11.02221 11.00881  7.44951 -11.72212 30.59763 -6.13619 -5.28981
O	 3.151390000	 0.003560000	 -1.076200000
H	 3.566540000	 0.186970000	 -1.920710000
H	 2.210620000	 0.000000000	 -1.276300000
Cl	 0.569922153	 0.000000000	 -0.329044179
C	 0.748562153	 -0.006420000	 1.447345821
H	 1.800232153	 0.104910000	 1.681485821
H	 0.172762153	 0.819900000	 1.845905821
H	 0.368362153	 -0.949550000	 1.820345821
