8
0  1  0  1  0  1   5   3  9.75529 11.06631 10.34376  9.03275 10.19975  9.49961 17.39380 17.37870 17.31833 11.27651 -20.87412 51.21228 -10.36652 -8.69513
O	 2.831330000	 -1.630560000	 0.643680000
H	 3.600090000	 -1.862610000	 0.119880000
H	 2.210620000	 -1.276300000	 -0.000000000
Cl	 0.664631303	 -0.383724445	 0.000000000
C	 0.843271303	 -0.390144445	 1.776390000
H	 1.894941303	 -0.278814445	 2.010530000
H	 0.267471303	 0.436175555	 2.174950000
H	 0.463071303	 -1.333274445	 2.149390000
