8
0  1  0  1  0  1   5   3 -1.74573 -1.62888 -1.65755 -1.77440 -1.69275 -1.74092 -1.10276 -1.10615 -1.10843 -1.63006 -1.40838  0.80213 -0.27229 -0.75151
O	 3.151390000	 0.003560000	 -1.076200000
H	 3.566540000	 0.186970000	 -1.920710000
H	 2.210620000	 0.000000000	 -1.276300000
Cl	 -0.367619474	 0.000000000	 0.212244861
C	 -0.188979474	 -0.006420000	 1.988634861
H	 0.862690526	 0.104910000	 2.222774861
H	 -0.764779474	 0.819900000	 2.387194861
H	 -0.569179474	 -0.949550000	 2.361634861
