8
0  1  0  1  0  1   5   3 -2.04389 -1.85302 -1.90106 -2.09193 -1.95766 -2.03687 -0.95042 -0.96028 -0.96405 -1.77822 -2.06415  2.02572 -0.54714 -1.19265
O	 3.151390000	 0.003560000	 -1.076200000
H	 3.566540000	 0.186970000	 -1.920710000
H	 2.210620000	 0.000000000	 -1.276300000
Cl	 -0.133234067	 0.000000000	 0.076922601
C	 0.045405933	 -0.006420000	 1.853312601
H	 1.097075933	 0.104910000	 2.087452601
H	 -0.530394067	 0.819900000	 2.251872601
H	 -0.334794067	 -0.949550000	 2.226312601
