8
0  1  0  1  0  1   5   3 -0.08986  0.70877  0.34995 -0.44868  0.22257 -0.17076  4.84050  4.82485  4.81237  1.22202 -11.41367 23.03312 -4.90377 -5.49366
O	 2.827770000	 1.636720000	 0.643680000
H	 3.413110000	 2.186460000	 0.119880000
H	 2.210620000	 1.276300000	 -0.000000000
Cl	 0.440603093	 0.254381906	 0.000000000
C	 0.619243093	 0.247961906	 1.776390000
H	 1.670913093	 0.359291906	 2.010530000
H	 0.043443093	 1.074281906	 2.174950000
H	 0.239043093	 -0.695168094	 2.149390000
