8
0  1  0  1  0  1   5   3 -3.08295 -2.75523 -2.81173 -3.13945 -2.87684 -3.03115 -1.02312 -1.02351 -1.02940 -2.80933 -4.64274  5.42064 -1.12764 -2.45959
O	 0.030850000	 -0.714670000	 0.642950000
H	 0.191890000	 -1.496470000	 0.111850000
H	 0.000000000	 0.000000000	 0.000000000
Cl	 -0.000000000	 2.505364175	 1.446470355
C	 0.068900000	 1.463124175	 2.894410355
H	 0.190060000	 0.437744175	 2.567070355
H	 0.911380000	 1.780204175	 3.496820355
H	 -0.857570000	 1.586064175	 3.441870355
