8
0  1  0  1  0  1   5   3 -3.57421 -3.17838 -3.29695 -3.69278 -3.39198 -3.56745 -1.10526 -1.11522 -1.11895 -2.96649 -5.06246  6.45876 -1.60750 -2.75529
O	 2.827770000	 1.636720000	 0.643680000
H	 3.413110000	 2.186460000	 0.119880000
H	 2.210620000	 1.276300000	 -0.000000000
Cl	 0.108724923	 0.062772263	 0.000000000
C	 0.287364923	 0.056352263	 1.776390000
H	 1.339034923	 0.167682263	 2.010530000
H	 -0.288435077	 0.882672263	 2.174950000
H	 -0.092835077	 -0.886777737	 2.149390000
