8
0  1  0  1  0  1   5   3 -0.73270 -0.66373 -0.62648 -0.69545 -0.65129 -0.67503 -0.10732 -0.10296 -0.09871 -0.66103 -0.45733  0.66144 -0.16115 -0.70399
O	 2.507710000	 0.003560000	 2.191080000
H	 3.446660000	 0.186970000	 2.128360000
H	 2.210620000	 0.000000000	 1.276300000
Cl	 -1.327853115	 0.000000000	 -0.766635121
C	 -1.149213115	 -0.006420000	 1.009754879
H	 -0.097543115	 0.104910000	 1.243894879
H	 -1.725013115	 0.819900000	 1.408314879
H	 -1.529413115	 -0.949550000	 1.382754879
