8
0  1  0  1  0  1   5   3 -3.38254 -3.13683 -3.19960 -3.44531 -3.26954 -3.37151 -1.85826 -1.86418 -1.86502 -3.08601 -3.24381  2.66441 -0.77788 -1.72874
O	 2.831330000	 -1.630560000	 0.643680000
H	 3.600090000	 -1.862610000	 0.119880000
H	 2.210620000	 -1.276300000	 -0.000000000
Cl	 -0.108363045	 0.062563333	 0.000000000
C	 0.070276955	 0.056143333	 1.776390000
H	 1.121946955	 0.167473333	 2.010530000
H	 -0.505523045	 0.882463333	 2.174950000
H	 -0.309923045	 -0.886986667	 2.149390000
