8
0  1  0  1  0  1   5   3 -3.53336 -3.14854 -3.26692 -3.65174 -3.36059 -3.52950 -1.09398 -1.10468 -1.10607 -2.94261 -5.02282  6.34375 -1.56458 -2.69896
O	 2.831330000	 -1.630560000	 0.643680000
H	 3.600090000	 -1.862610000	 0.119880000
H	 2.210620000	 -1.276300000	 -0.000000000
Cl	 0.112492483	 -0.064947461	 0.000000000
C	 0.291132483	 -0.071367461	 1.776390000
H	 1.342802483	 0.039962539	 2.010530000
H	 -0.284667517	 0.754952539	 2.174950000
H	 -0.089067517	 -1.014497461	 2.149390000
