8
0  1  0  1  0  1   5   3 -3.67546 -3.25979 -3.37349 -3.78917 -3.47270 -3.65868 -1.11808 -1.12841 -1.13558 -3.06925 -5.32453  6.84672 -1.71072 -2.88072
O	 0.030850000	 -0.714670000	 0.642950000
H	 0.191890000	 -1.496470000	 0.111850000
H	 0.000000000	 0.000000000	 0.000000000
Cl	 -0.000000000	 2.442924348	 0.000000000
C	 0.068900000	 2.264284348	 1.775070000
H	 0.190060000	 1.212604348	 2.004270000
H	 0.911380000	 2.840084348	 2.138240000
H	 -0.857570000	 2.644484348	 2.187720000
