8
0  1  0  1  0  1   5   3 -0.51432 -0.36199 -0.30726 -0.45958 -0.34767 -0.41236  0.81036  0.81190  0.81192 -0.32903 -1.13875  2.75790 -0.50704 -1.44114
O	 2.507710000	 0.003560000	 2.191080000
H	 3.446660000	 0.186970000	 2.128360000
H	 2.210620000	 0.000000000	 1.276300000
Cl	 -0.974005804	 0.000000000	 -0.562341609
C	 -0.795365804	 -0.006420000	 1.214048391
H	 0.256304196	 0.104910000	 1.448188391
H	 -1.371165804	 0.819900000	 1.612608391
H	 -1.175565804	 -0.949550000	 1.587048391
