8
0  1  0  1  0  1   5   3 -3.59896 -3.28270 -3.36686 -3.68312 -3.44956 -3.58596 -1.64741 -1.65462 -1.65788 -3.15983 -4.02017  4.18803 -1.12571 -2.20198
O	 2.827770000	 1.636720000	 0.643680000
H	 3.413110000	 2.186460000	 0.119880000
H	 2.210620000	 1.276300000	 -0.000000000
Cl	 -0.001901133	 -0.001097618	 0.000000000
C	 0.176738867	 -0.007517618	 1.776390000
H	 1.228408867	 0.103812382	 2.010530000
H	 -0.399061133	 0.818802382	 2.174950000
H	 -0.203461133	 -0.950647618	 2.149390000
