8
0  1  0  1  0  1   5   3 -2.74386 -2.54554 -2.58351 -2.78183 -2.64875 -2.72748 -1.54790 -1.55305 -1.55730 -2.48544 -2.27445  1.79913 -0.65845 -1.35168
O	 0.030850000	 -0.714670000	 0.642950000
H	 0.191890000	 -1.496470000	 0.111850000
H	 0.000000000	 0.000000000	 0.000000000
Cl	 -0.000000000	 2.349933715	 -1.356732681
C	 0.068900000	 3.082763715	 0.269837319
H	 0.190060000	 2.286593715	 0.994177319
H	 0.911380000	 3.763003715	 0.296447319
H	 -0.857570000	 3.618353715	 0.437097319
