8
0  1  0  1  0  1   5   3 -3.52679 -3.26277 -3.31924 -3.58326 -3.39245 -3.50434 -1.93514 -1.93905 -1.94277 -3.21626 -3.40030  2.86179 -0.84141 -1.83635
O	 0.030850000	 -0.714670000	 0.642950000
H	 0.191890000	 -1.496470000	 0.111850000
H	 0.000000000	 0.000000000	 0.000000000
Cl	 -0.000000000	 2.700074280	 0.000000000
C	 0.068900000	 2.521434280	 1.775070000
H	 0.190060000	 1.469754280	 2.004270000
H	 0.911380000	 3.097234280	 2.138240000
H	 -0.857570000	 2.901634280	 2.187720000
