8
0  1  0  1  0  1   5   3  0.01766  0.79458  0.49514 -0.28178  0.36697 -0.01447  4.82531  4.80932  4.79421  1.23958 -10.92754 21.79568 -4.24891 -5.37965
O	 0.030850000	 -0.714670000	 0.642950000
H	 0.191890000	 -1.496470000	 0.111850000
H	 0.000000000	 0.000000000	 0.000000000
Cl	 -1.060125411	 1.836194027	 0.000000000
C	 -0.911145411	 1.715934027	 1.775070000
H	 -0.280375411	 0.865744027	 2.004270000
H	 -0.469435411	 2.635834027	 2.138240000
H	 -1.903585411	 1.581964027	 2.187720000
