8
0  1  0  1  0  1   5   3 -2.87217 -2.68494 -2.71476 -2.90198 -2.76571 -2.84502 -1.73883 -1.73719 -1.73843 -2.69358 -2.41861  1.54363 -0.47330 -1.34530
O	 0.030850000	 -0.714670000	 0.642950000
H	 0.191890000	 -1.496470000	 0.111850000
H	 0.000000000	 0.000000000	 0.000000000
Cl	 -1.457672440	 2.524766787	 0.000000000
C	 -1.308692440	 2.404506787	 1.775070000
H	 -0.677922440	 1.554316787	 2.004270000
H	 -0.866982440	 3.324406787	 2.138240000
H	 -2.301132440	 2.270536787	 2.187720000
