8
0  1  0  1  0  1   5   3 -2.91460 -2.73123 -2.75619 -2.93955 -2.79849 -2.87850 -1.75387 -1.75129 -1.74764 -2.80475 -2.77114  1.92080 -0.51387 -1.44055
O	 0.030850000	 -0.714670000	 0.642950000
H	 0.191890000	 -1.496470000	 0.111850000
H	 0.000000000	 0.000000000	 0.000000000
Cl	 -0.000000000	 2.769086720	 1.598730393
C	 0.068900000	 1.726846720	 3.046670393
H	 0.190060000	 0.701466720	 2.719330393
H	 0.911380000	 2.043926720	 3.649080393
H	 -0.857570000	 1.849786720	 3.594130393
