8
0  1  0  1  0  1   5   3 -2.62445 -2.48725 -2.50684 -2.64405 -2.54016 -2.59751 -1.75736 -1.75433 -1.74791 -2.55592 -2.22784  1.13311 -0.35361 -1.10758
O	 0.030850000	 -0.714670000	 0.642950000
H	 0.191890000	 -1.496470000	 0.111850000
H	 0.000000000	 0.000000000	 0.000000000
Cl	 -0.000000000	 2.900947992	 1.674860411
C	 0.068900000	 1.858707992	 3.122800411
H	 0.190060000	 0.833327992	 2.795460411
H	 0.911380000	 2.175787992	 3.725210411
H	 -0.857570000	 1.981647992	 3.670260411
