8
0  1  0  1  0  1   5   3 -3.29872 -2.91743 -3.00387 -3.38516 -3.09443 -3.26550 -0.93612 -0.94338 -0.95047 -2.77981 -4.67399  5.92794 -1.36855 -2.66521
O	 0.030850000	 -0.714670000	 0.642950000
H	 0.191890000	 -1.496470000	 0.111850000
H	 0.000000000	 0.000000000	 0.000000000
Cl	 -1.258898926	 2.180480407	 0.000000000
C	 -1.109918926	 2.060220407	 1.775070000
H	 -0.479148926	 1.210030407	 2.004270000
H	 -0.668208926	 2.980120407	 2.138240000
H	 -2.102358926	 1.926250407	 2.187720000
