8
0  1  0  1  0  1   5   3 -3.33419 -3.04087 -3.07184 -3.36515 -3.14333 -3.27360 -1.57578 -1.57685 -1.58165 -3.05828 -3.88503  3.83234 -0.92628 -2.07931
O	 0.030850000	 -0.714670000	 0.642950000
H	 0.191890000	 -1.496470000	 0.111850000
H	 0.000000000	 0.000000000	 0.000000000
Cl	 1.356770715	 2.349999591	 0.000000000
C	 1.327120715	 2.160849591	 1.775070000
H	 0.906210715	 1.189489591	 2.004270000
H	 2.344630715	 2.238259591	 2.138240000
H	 0.714880715	 2.953339591	 2.187720000
