8
0  1  0  1  0  1   5   3 -3.11291 -2.91718 -2.96547 -3.16120 -3.02333 -3.10294 -1.91279 -1.91603 -1.91582 -2.90967 -2.68265  1.71878 -0.55705 -1.38875
O	 2.831330000	 -1.630560000	 0.643680000
H	 3.600090000	 -1.862610000	 0.119880000
H	 2.210620000	 -1.276300000	 -0.000000000
Cl	 -0.218790809	 0.126318729	 0.000000000
C	 -0.040150809	 0.119898729	 1.776390000
H	 1.011519191	 0.231228729	 2.010530000
H	 -0.615950809	 0.946218729	 2.174950000
H	 -0.420350809	 -0.823231271	 2.149390000
