8
0  1  0  1  0  1   5   3 -3.13277 -2.83145 -2.90954 -3.21086 -2.99719 -3.12296 -1.27173 -1.28126 -1.28657 -2.63873 -3.43635  4.14121 -1.28911 -2.05449
O	 0.030850000	 -0.714670000	 0.642950000
H	 0.191890000	 -1.496470000	 0.111850000
H	 0.000000000	 0.000000000	 0.000000000
Cl	 -0.000000000	 2.136303377	 -1.233393347
C	 0.068900000	 2.869133377	 0.393176653
H	 0.190060000	 2.072963377	 1.117516653
H	 0.911380000	 3.549373377	 0.419786653
H	 -0.857570000	 3.404723377	 0.560436653
