8
0  1  0  1  0  1   5   3 -3.14791 -2.94728 -2.99418 -3.19481 -3.05160 -3.13475 -1.93919 -1.94060 -1.94146 -2.93147 -2.69004  1.74167 -0.56836 -1.41474
O	 2.827770000	 1.636720000	 0.643680000
H	 3.413110000	 2.186460000	 0.119880000
H	 2.210620000	 1.276300000	 -0.000000000
Cl	 -0.223153247	 -0.128837380	 0.000000000
C	 -0.044513247	 -0.135257380	 1.776390000
H	 1.007156753	 -0.023927380	 2.010530000
H	 -0.620313247	 0.691062620	 2.174950000
H	 -0.424713247	 -1.078387380	 2.149390000
