8
0  1  0  1  0  1   5   3 -3.24154 -3.03218 -3.07431 -3.28367 -3.13434 -3.22140 -1.99172 -1.99240 -1.99411 -3.02482 -2.79470  1.83951 -0.59796 -1.47168
O	 0.030850000	 -0.714670000	 0.642950000
H	 0.191890000	 -1.496470000	 0.111850000
H	 0.000000000	 0.000000000	 0.000000000
Cl	 -0.000000000	 2.828649245	 0.000000000
C	 0.068900000	 2.650009245	 1.775070000
H	 0.190060000	 1.598329245	 2.004270000
H	 0.911380000	 3.225809245	 2.138240000
H	 -0.857570000	 3.030209245	 2.187720000
