8
0  1  0  1  0  1   5   3 -3.11083 -2.86541 -2.90128 -3.14670 -2.95426 -3.06570 -1.56185 -1.56046 -1.56091 -2.93621 -3.53702  3.23673 -0.75698 -1.87894
O	 0.030850000	 -0.714670000	 0.642950000
H	 0.191890000	 -1.496470000	 0.111850000
H	 0.000000000	 0.000000000	 0.000000000
Cl	 -0.000000000	 2.637225448	 1.522600374
C	 0.068900000	 1.594985448	 2.970540374
H	 0.190060000	 0.569605448	 2.643200374
H	 0.911380000	 1.912065448	 3.572950374
H	 -0.857570000	 1.717925448	 3.518000374
