8
0  1  0  1  0  1   5   3 -0.65768 -0.60873 -0.58144 -0.63039 -0.60052 -0.61606 -0.22693 -0.22308 -0.21899 -0.61475 -0.33776  0.31901 -0.09649 -0.49951
O	 2.507710000	 0.003560000	 2.191080000
H	 3.446660000	 0.186970000	 2.128360000
H	 2.210620000	 0.000000000	 1.276300000
Cl	 -1.504776771	 0.000000000	 -0.868781877
C	 -1.326136771	 -0.006420000	 0.907608123
H	 -0.274466771	 0.104910000	 1.141748123
H	 -1.901936771	 0.819900000	 1.306168123
H	 -1.706336771	 -0.949550000	 1.280608123
