8
0  1  0  1  0  1   5   3 -2.78481 -2.32604 -2.49487 -2.95364 -2.60198 -2.80656  0.08587  0.07452  0.07150 -1.93943 -5.56851  9.40565 -2.61992 -3.15664
O	 0.030850000	 -0.714670000	 0.642950000
H	 0.191890000	 -1.496470000	 0.111850000
H	 0.000000000	 0.000000000	 0.000000000
Cl	 -0.000000000	 1.922673039	 -1.110054012
C	 0.068900000	 2.655503039	 0.516515988
H	 0.190060000	 1.859333039	 1.240855988
H	 0.911380000	 3.335743039	 0.543125988
H	 -0.857570000	 3.191093039	 0.683775988
