8
0  1  0  1  0  1   5   3  8.14198  9.31109  8.58866  7.41954  8.44743  7.83271 14.87808 14.86756 14.81903  9.27334 -17.21220 46.20335 -11.86281 -7.85499
O	 0.030850000	 -0.714670000	 0.642950000
H	 0.191890000	 -1.496470000	 0.111850000
H	 0.000000000	 0.000000000	 0.000000000
Cl	 -0.000000000	 1.495412364	 -0.863375343
C	 0.068900000	 2.228242364	 0.763194657
H	 0.190060000	 1.432072364	 1.487534657
H	 0.911380000	 2.908482364	 0.789804657
H	 -0.857570000	 2.763832364	 0.930454657
