8
0  1  0  1  0  1   5   3  1.91575  2.26955  2.28511  1.93130  2.22667  2.04729  4.67558  4.67408  4.65365  2.34960 -3.74996 10.95441 -1.80361 -3.05124
O	 2.507710000	 0.003560000	 2.191080000
H	 3.446660000	 0.186970000	 2.128360000
H	 2.210620000	 0.000000000	 1.276300000
Cl	 -0.620158492	 0.000000000	 -0.358048097
C	 -0.441518492	 -0.006420000	 1.418341903
H	 0.610151508	 0.104910000	 1.652481903
H	 -1.017318492	 0.819900000	 1.816901903
H	 -0.821718492	 -0.949550000	 1.791341903
