8
0  1  0  1  0  1   5   3 -3.15492 -2.92567 -2.94465 -3.17390 -3.00331 -3.10270 -1.78427 -1.78284 -1.78466 -2.96863 -3.11524  2.44557 -0.65072 -1.64824
O	 0.030850000	 -0.714670000	 0.642950000
H	 0.191890000	 -1.496470000	 0.111850000
H	 0.000000000	 0.000000000	 0.000000000
Cl	 1.424609251	 2.467499571	 0.000000000
C	 1.394959251	 2.278349571	 1.775070000
H	 0.974049251	 1.306989571	 2.004270000
H	 2.412469251	 2.355759571	 2.138240000
H	 0.782719251	 3.070839571	 2.187720000
