8
0  1  0  1  0  1   5   3 -3.32514 -2.95133 -3.00372 -3.37753 -3.08875 -3.25892 -1.07595 -1.07997 -1.08761 -2.92218 -4.94824  5.98208 -1.32978 -2.62625
O	 0.030850000	 -0.714670000	 0.642950000
H	 0.191890000	 -1.496470000	 0.111850000
H	 0.000000000	 0.000000000	 0.000000000
Cl	 1.288932179	 2.232499611	 0.000000000
C	 1.259282179	 2.043349611	 1.775070000
H	 0.838372179	 1.071989611	 2.004270000
H	 2.276792179	 2.120759611	 2.138240000
H	 0.647042179	 2.835839611	 2.187720000
