8
0  1  0  1  0  1   5   3 -0.21283  0.50715  0.14804 -0.57194  0.02455 -0.32292  4.19101  4.17991  4.17369  0.99728 -9.61881 21.04162 -5.50171 -4.92383
O	 0.030850000	 -0.714670000	 0.642950000
H	 0.191890000	 -1.496470000	 0.111850000
H	 0.000000000	 0.000000000	 0.000000000
Cl	 -0.000000000	 1.709042701	 -0.986714677
C	 0.068900000	 2.441872701	 0.639855323
H	 0.190060000	 1.645702701	 1.364195323
H	 0.911380000	 3.122112701	 0.666465323
H	 -0.857570000	 2.977462701	 0.807115323
