8
0  1  0  1  0  1   5   3 -1.89484 -1.58944 -1.68638 -1.99177 -1.76449 -1.89667 -0.05615 -0.07157 -0.07342 -1.33449 -3.32867  5.07859 -1.16507 -1.91934
O	 3.151390000	 0.003560000	 -1.076200000
H	 3.566540000	 0.186970000	 -1.920710000
H	 2.210620000	 0.000000000	 -1.276300000
Cl	 0.101151339	 0.000000000	 -0.058399659
C	 0.279791339	 -0.006420000	 1.717990341
H	 1.331461339	 0.104910000	 1.952130341
H	 -0.296008661	 0.819900000	 2.116550341
H	 -0.100408661	 -0.949550000	 2.090990341
