8
0  1  0  1  0  1   5   3  9.77614 11.08168 10.42734  9.12181 10.27769  9.58527 17.43033 17.41122 17.35390 11.35435 -20.87777 50.22430 -9.27764 -8.71455
O	 0.030850000	 -0.714670000	 0.642950000
H	 0.191890000	 -1.496470000	 0.111850000
H	 0.000000000	 0.000000000	 0.000000000
Cl	 -0.927609735	 1.606669774	 0.000000000
C	 -0.778629735	 1.486409774	 1.775070000
H	 -0.147859735	 0.636219774	 2.004270000
H	 -0.336919735	 2.406309774	 2.138240000
H	 -1.771069735	 1.352439774	 2.187720000
