8
0  1  0  1  0  1   5   3 -3.13673 -2.89843 -2.93896 -3.17727 -3.00255 -3.10500 -1.68458 -1.68558 -1.68900 -2.87892 -2.95156  2.42624 -0.66774 -1.68587
O	 0.030850000	 -0.714670000	 0.642950000
H	 0.191890000	 -1.496470000	 0.111850000
H	 0.000000000	 0.000000000	 0.000000000
Cl	 -1.391414602	 2.410004660	 0.000000000
C	 -1.242434602	 2.289744660	 1.775070000
H	 -0.611664602	 1.439554660	 2.004270000
H	 -0.800724602	 3.209644660	 2.138240000
H	 -2.234874602	 2.155774660	 2.187720000
