8
0  1  0  1  0  1   5   3 -0.72949 -0.62857 -0.58079 -0.68170 -0.61277 -0.65114  0.18104  0.18447  0.18798 -0.61305 -0.68749  1.35724 -0.28059 -1.00221
O	 2.507710000	 0.003560000	 2.191080000
H	 3.446660000	 0.186970000	 2.128360000
H	 2.210620000	 0.000000000	 1.276300000
Cl	 -1.150929460	 0.000000000	 -0.664488365
C	 -0.972289460	 -0.006420000	 1.111901635
H	 0.079380540	 0.104910000	 1.346041635
H	 -1.548089460	 0.819900000	 1.510461635
H	 -1.352489460	 -0.949550000	 1.484901635
