8
0  1  0  1  0  1   5   3 -2.60419 -2.16810 -2.26118 -2.69727 -2.33950 -2.55150  0.12509  0.12250  0.11026 -2.18339 -6.27267  9.01022 -1.69398 -3.22697
O	 0.030850000	 -0.714670000	 0.642950000
H	 0.191890000	 -1.496470000	 0.111850000
H	 0.000000000	 0.000000000	 0.000000000
Cl	 -0.000000000	 2.373502903	 1.370340337
C	 0.068900000	 1.331262903	 2.818280337
H	 0.190060000	 0.305882903	 2.490940337
H	 0.911380000	 1.648342903	 3.420690337
H	 -0.857570000	 1.454202903	 3.365740337
