10
0  1  0  1  0  1   5   5 24.54164 26.18279 24.76022 23.11907 24.60572 23.71349 36.12654 36.11377 36.03612 25.08366 -25.55608 73.15525 -11.02514 -11.49038
Cl	 -1.224453733	 1.054274488	 0.000174576
C	 -0.875543733	 -0.693808512	 0.000092576
H	 -1.315184733	 -1.128381512	 -0.889609424
H	 -1.314967733	 -1.128421512	 0.889882576
H	 0.199345267	 -0.828367512	 -0.000039424
Cl	 1.827087000	 1.589844000	 0.000094000
C	 0.650675000	 2.929096000	 0.000043000
H	 -0.347413000	 2.508012000	 0.000078000
H	 0.813920000	 3.525211000	 -0.889735000
H	 0.813942000	 3.525299000	 0.889758000
