10
0  1  0  1  0  1   5   5 -2.55063 -2.26411 -2.40865 -2.69517 -2.49570 -2.60965 -0.46686 -0.46919 -0.46595 -2.34195 -2.46406  2.91035 -0.55622 -2.23203
Cl	 -1.492600071	 0.540547121	 2.017530130
C	 -1.189777071	 -1.207657879	 1.845451130
H	 -2.015193071	 -1.643329879	 1.295374130
H	 -1.125263071	 -1.640858879	 2.836350130
H	 -0.258907071	 -1.342596879	 1.308082130
Cl	 2.111707000	 -0.538824000	 0.000181000
C	 1.762530000	 1.209208000	 0.000110000
H	 0.687619000	 1.343583000	 0.000122000
H	 2.201980000	 1.643830000	 -0.889662000
H	 2.202008000	 1.643908000	 0.889831000
