10
0  1  0  1  0  1   5   5 -1.41243 -1.13049 -1.24668 -1.52862 -1.34022 -1.44870  0.92412  0.91894  0.91997 -1.14171 -1.98156  3.80906 -0.63179 -2.33742
Cl	 -2.420375778	 0.716166166	 0.000192765
C	 -2.071465778	 -1.031916834	 0.000110765
H	 -2.511106778	 -1.466489834	 -0.889591235
H	 -2.510889778	 -1.466529834	 0.889900765
H	 -0.996576778	 -1.166475834	 -0.000021235
Cl	 1.293861000	 -2.524615000	 0.000266000
C	 1.865481000	 -0.836186000	 0.000194000
H	 1.001769000	 -0.182358000	 0.000184000
H	 2.463385000	 -0.679524000	 -0.889567000
H	 2.463413000	 -0.679457000	 0.889926000
