10
0  1  0  1  0  1   5   5 -2.55056 -2.26397 -2.40852 -2.69511 -2.49561 -2.60957 -0.46643 -0.46877 -0.46552 -2.34180 -2.46470  2.91178 -0.55648 -2.23239
Cl	 -2.043624066	 0.539089714	 -0.038897875
C	 -1.694714066	 -1.208993286	 -0.038979875
H	 -2.134355066	 -1.643566286	 -0.928681875
H	 -2.134138066	 -1.643606286	 0.850810125
H	 -0.619825066	 -1.343552286	 -0.039111875
Cl	 1.560672000	 -0.540457000	 -2.056289000
C	 1.257618000	 1.207711000	 -1.884229000
H	 0.326675000	 1.342513000	 -1.346954000
H	 1.193154000	 1.640913000	 -2.875131000
H	 2.082921000	 1.643482000	 -1.334059000
