10
0  1  0  1  0  1   5   5 -1.49737 -1.30435 -1.37431 -1.56733 -1.44735 -1.51589  0.13193  0.12927  0.13122 -1.34937 -1.19536  1.82929 -0.34233 -1.64097
Cl	 -2.619521871	 0.830398181	 0.000188748
C	 -2.270611871	 -0.917684819	 0.000106748
H	 -2.710252871	 -1.352257819	 -0.889595252
H	 -2.710035871	 -1.352297819	 0.889896748
H	 -1.195722871	 -1.052243819	 -0.000025252
Cl	 1.293861000	 -2.524615000	 0.000266000
C	 1.865481000	 -0.836186000	 0.000194000
H	 1.001769000	 -0.182358000	 0.000184000
H	 2.463385000	 -0.679524000	 -0.889567000
H	 2.463413000	 -0.679457000	 0.889926000
