10
0  1  0  1  0  1   5   5  6.06216  7.16349  6.42675  5.32543  6.25590  5.71781 13.80215 13.78436 13.78397  7.18740 -14.10186 33.77443 -4.56260 -7.92257
Cl	 -0.812334282	 0.542626415	 -1.624378301
C	 -0.509510282	 -1.205593585	 -1.452462301
H	 -0.445248282	 -1.638745585	 -2.443400301
H	 -1.334802282	 -1.641275585	 -0.902206301
H	 0.421485718	 -1.340581585	 -0.915324301
Cl	 2.111707000	 -0.538824000	 0.000181000
C	 1.762530000	 1.209208000	 0.000110000
H	 0.687619000	 1.343583000	 0.000122000
H	 2.201980000	 1.643830000	 -0.889662000
H	 2.202008000	 1.643908000	 0.889831000
