10
0  1  0  1  0  1   5   5 -1.44751 -1.32660 -1.39516 -1.51607 -1.43403 -1.47967 -0.54580 -0.54742 -0.54317 -1.36688 -0.93149  0.75006 -0.18234 -1.00311
Cl	 -2.512751799	 0.305639692	 0.000210054
C	 -2.163841799	 -1.442443308	 0.000128054
H	 -2.603482799	 -1.877016308	 -0.889573946
H	 -2.603265799	 -1.877056308	 0.889918054
H	 -1.088952799	 -1.577002308	 -0.000003946
Cl	 1.827087000	 1.589844000	 0.000094000
C	 0.650675000	 2.929096000	 0.000043000
H	 -0.347413000	 2.508012000	 0.000078000
H	 0.813920000	 3.525211000	 -0.889735000
H	 0.813942000	 3.525299000	 0.889758000
