10
0  1  0  1  0  1   5   5 -1.60378 -1.36490 -1.50299 -1.74187 -1.56994 -1.66709  0.23132  0.22624  0.23156 -1.35275 -1.82003  2.89588 -0.51343 -1.91517
Cl	 -1.864014006	 -1.611387060	 0.000099145
C	 -0.687808006	 -2.950817060	 0.000033145
H	 -0.851241006	 -3.546981060	 -0.889677855
H	 -0.851073006	 -3.546922060	 0.889814145
H	 0.310352994	 -2.529904060	 -0.000073855
Cl	 2.111707000	 -0.538824000	 0.000181000
C	 1.762530000	 1.209208000	 0.000110000
H	 0.687619000	 1.343583000	 0.000122000
H	 2.201980000	 1.643830000	 -0.889662000
H	 2.202008000	 1.643908000	 0.889831000
