10
0  1  0  1  0  1   5   5 -2.36423 -2.15950 -2.26469 -2.46943 -2.32948 -2.40853 -0.86299 -0.86177 -0.85737 -2.24641 -1.79828  1.54011 -0.34414 -1.64409
Cl	 -1.662669473	 0.540064613	 2.115720958
C	 -1.359846473	 -1.208140387	 1.943641958
H	 -2.185262473	 -1.643812387	 1.393564958
H	 -1.295332473	 -1.641341387	 2.934540958
H	 -0.428976473	 -1.343079387	 1.406272958
Cl	 2.111707000	 -0.538824000	 0.000181000
C	 1.762530000	 1.209208000	 0.000110000
H	 0.687619000	 1.343583000	 0.000122000
H	 2.201980000	 1.643830000	 -0.889662000
H	 2.202008000	 1.643908000	 0.889831000
