10
0  1  0  1  0  1   5   5 -2.55071 -2.26417 -2.40871 -2.69524 -2.49579 -2.60973 -0.46684 -0.46918 -0.46593 -2.34202 -2.46419  2.91054 -0.55625 -2.23213
Cl	 -1.492614783	 0.540732524	 -2.017136626
C	 -1.189790783	 -1.207487476	 -1.845220626
H	 -1.125528783	 -1.640639476	 -2.836158626
H	 -2.015082783	 -1.643169476	 -1.294964626
H	 -0.258794783	 -1.342475476	 -1.308082626
Cl	 2.111707000	 -0.538824000	 0.000181000
C	 1.762530000	 1.209208000	 0.000110000
H	 0.687619000	 1.343583000	 0.000122000
H	 2.201980000	 1.643830000	 -0.889662000
H	 2.202008000	 1.643908000	 0.889831000
