10
0  1  0  1  0  1   5   5  6.06726  7.16874  6.43185  5.33036  6.26098  5.72280 13.80819 13.79041 13.79000  7.19222 -14.10639 33.78776 -4.56536 -7.92379
Cl	 -1.363346405	 0.540985511	 -0.431661232
C	 -1.014436405	 -1.207097489	 -0.431743232
H	 -1.454077405	 -1.641670489	 -1.321445232
H	 -1.453860405	 -1.641710489	 0.458046768
H	 0.060452595	 -1.341656489	 -0.431875232
Cl	 1.560672000	 -0.540457000	 -2.056289000
C	 1.257618000	 1.207711000	 -1.884229000
H	 0.326675000	 1.342513000	 -1.346954000
H	 1.193154000	 1.640913000	 -2.875131000
H	 2.082921000	 1.643482000	 -1.334059000
