10
0  1  0  1  0  1   5   5 -1.24095 -1.15489 -1.20667 -1.29274 -1.23380 -1.26602 -0.60888 -0.60898 -0.60459 -1.19551 -0.72627  0.37563 -0.11373 -0.73114
Cl	 -2.696794380	 0.198691864	 0.000215123
C	 -2.347884380	 -1.549391136	 0.000133123
H	 -2.787525380	 -1.983964136	 -0.889568877
H	 -2.787308380	 -1.984004136	 0.889923123
H	 -1.272995380	 -1.683950136	 0.000001123
Cl	 1.827087000	 1.589844000	 0.000094000
C	 0.650675000	 2.929096000	 0.000043000
H	 -0.347413000	 2.508012000	 0.000078000
H	 0.813920000	 3.525211000	 -0.889735000
H	 0.813942000	 3.525299000	 0.889758000
