10
0  1  0  1  0  1   5   5  6.06139  7.16265  6.42594  5.32467  6.25508  5.71702 13.80100 13.78321 13.78282  7.18654 -14.10089 33.77199 -4.56237 -7.92219
Cl	 -0.812322461	 0.542477153	 1.624766816
C	 -0.509499461	 -1.205727847	 1.452687816
H	 -1.334915461	 -1.641399847	 0.902610816
H	 -0.444985461	 -1.638928847	 2.443586816
H	 0.421370539	 -1.340666847	 0.915318816
Cl	 2.111707000	 -0.538824000	 0.000181000
C	 1.762530000	 1.209208000	 0.000110000
H	 0.687619000	 1.343583000	 0.000122000
H	 2.201980000	 1.643830000	 -0.889662000
H	 2.202008000	 1.643908000	 0.889831000
