10
0  1  0  1  0  1   5   5 36.48490 38.76513 37.02240 34.74217 36.81753 35.58479 51.39917 51.37766 51.29961 36.50992 -39.96185 105.84423 -13.68380 -15.68866
Cl	 -0.472183656	 0.543442169	 1.428385159
C	 -0.169360656	 -1.204762831	 1.256306159
H	 -0.994776656	 -1.640434831	 0.706229159
H	 -0.104846656	 -1.637963831	 2.247205159
H	 0.761509344	 -1.339701831	 0.718937159
Cl	 2.111707000	 -0.538824000	 0.000181000
C	 1.762530000	 1.209208000	 0.000110000
H	 0.687619000	 1.343583000	 0.000122000
H	 2.201980000	 1.643830000	 -0.889662000
H	 2.202008000	 1.643908000	 0.889831000
