10
0  1  0  1  0  1   5   5 -1.60821 -1.43788 -1.53314 -1.70348 -1.58593 -1.65198 -0.31804 -0.32159 -0.31706 -1.46476 -1.26509  1.49011 -0.30261 -1.38718
Cl	 -2.328709218	 0.412587520	 0.000204986
C	 -1.979799218	 -1.335495480	 0.000122986
H	 -2.419440218	 -1.770068480	 -0.889579014
H	 -2.419223218	 -1.770108480	 0.889912986
H	 -0.904910218	 -1.470054480	 -0.000009014
Cl	 1.827087000	 1.589844000	 0.000094000
C	 0.650675000	 2.929096000	 0.000043000
H	 -0.347413000	 2.508012000	 0.000078000
H	 0.813920000	 3.525211000	 -0.889735000
H	 0.813942000	 3.525299000	 0.889758000
