10
0  1  0  1  0  1   5   5 -1.60600 -1.43705 -1.53153 -1.70048 -1.58398 -1.64943 -0.32669 -0.33019 -0.32567 -1.46453 -1.25506  1.46596 -0.29885 -1.37658
Cl	 -2.048264384	 -1.718455625	 0.000094918
C	 -0.872058384	 -3.057885625	 0.000028918
H	 -1.035491384	 -3.654049625	 -0.889682082
H	 -1.035323384	 -3.653990625	 0.889809918
H	 0.126102616	 -2.636972625	 -0.000078082
Cl	 2.111707000	 -0.538824000	 0.000181000
C	 1.762530000	 1.209208000	 0.000110000
H	 0.687619000	 1.343583000	 0.000122000
H	 2.201980000	 1.643830000	 -0.889662000
H	 2.202008000	 1.643908000	 0.889831000
