10
0  1  0  1  0  1   5   5 -2.36434 -2.15955 -2.26474 -2.46953 -2.32955 -2.40862 -0.86283 -0.86162 -0.85721 -2.24646 -1.79868  1.54086 -0.34428 -1.64435
Cl	 -2.213693481	 0.538615764	 0.059292965
C	 -1.864783481	 -1.209467236	 0.059210965
H	 -2.304424481	 -1.644040236	 -0.830491035
H	 -2.304207481	 -1.644080236	 0.949000965
H	 -0.789894481	 -1.344026236	 0.059078965
Cl	 1.560672000	 -0.540457000	 -2.056289000
C	 1.257618000	 1.207711000	 -1.884229000
H	 0.326675000	 1.342513000	 -1.346954000
H	 1.193154000	 1.640913000	 -2.875131000
H	 2.082921000	 1.643482000	 -1.334059000
