10
0  1  0  1  0  1   5   5 -1.11717 -1.02745 -1.05914 -1.14886 -1.09652 -1.12542 -0.31679 -0.31503 -0.31181 -1.07598 -0.54912  0.41276 -0.11273 -0.82689
Cl	 -3.017814058	 1.058862211	 0.000180713
C	 -2.668904058	 -0.689220789	 0.000098713
H	 -3.108545058	 -1.123793789	 -0.889603287
H	 -3.108328058	 -1.123833789	 0.889888713
H	 -1.594015058	 -0.823779789	 -0.000033287
Cl	 1.293861000	 -2.524615000	 0.000266000
C	 1.865481000	 -0.836186000	 0.000194000
H	 1.001769000	 -0.182358000	 0.000184000
H	 2.463385000	 -0.679524000	 -0.889567000
H	 2.463413000	 -0.679457000	 0.889926000
