10
0  1  0  1  0  1   5   5 -2.41691 -2.01728 -2.22507 -2.62470 -2.33592 -2.50174  0.47693  0.47056  0.47324 -2.05890 -3.55539  5.45904 -0.91940 -3.04316
Cl	 -1.322544658	 0.541205997	 -1.918947045
C	 -1.019720658	 -1.207014003	 -1.747031045
H	 -0.955458658	 -1.640166003	 -2.737969045
H	 -1.845012658	 -1.642696003	 -1.196775045
H	 -0.088724658	 -1.342002003	 -1.209893045
Cl	 2.111707000	 -0.538824000	 0.000181000
C	 1.762530000	 1.209208000	 0.000110000
H	 0.687619000	 1.343583000	 0.000122000
H	 2.201980000	 1.643830000	 -0.889662000
H	 2.202008000	 1.643908000	 0.889831000
