10
0  1  0  1  0  1   5   5 -1.17756 -0.83709 -1.04854 -1.38901 -1.12942 -1.27670  1.45955  1.45343  1.46005 -0.74944 -2.82841  5.67102 -0.91108 -2.68096
Cl	 -1.679763628	 -1.504318496	 0.000103372
C	 -0.503557628	 -2.843748496	 0.000037372
H	 -0.666990628	 -3.439912496	 -0.889673628
H	 -0.666822628	 -3.439853496	 0.889818372
H	 0.494603372	 -2.422835496	 -0.000069628
Cl	 2.111707000	 -0.538824000	 0.000181000
C	 1.762530000	 1.209208000	 0.000110000
H	 0.687619000	 1.343583000	 0.000122000
H	 2.201980000	 1.643830000	 -0.889662000
H	 2.202008000	 1.643908000	 0.889831000
