10
0  1  0  1  0  1   5   5 -1.15983 -0.81674 -1.03019 -1.37327 -1.11136 -1.25997  1.49774  1.49159  1.49825 -0.72708 -2.85732  5.75341 -0.92280 -2.70038
Cl	 -1.960624056	 0.626483176	 0.000194849
C	 -1.611714056	 -1.121599824	 0.000112849
H	 -2.051355056	 -1.556172824	 -0.889589151
H	 -2.051138056	 -1.556212824	 0.889902849
H	 -0.536825056	 -1.256158824	 -0.000019151
Cl	 1.827087000	 1.589844000	 0.000094000
C	 0.650675000	 2.929096000	 0.000043000
H	 -0.347413000	 2.508012000	 0.000078000
H	 0.813920000	 3.525211000	 -0.889735000
H	 0.813942000	 3.525299000	 0.889758000
