10
0  1  0  1  0  1   5   5 41.52094 43.97028 42.12257 39.67323 41.91935 40.57840 57.10431 57.08390 56.98337 40.90734 -43.91495 118.82123 -17.20699 -16.79195
Cl	 -0.885184800	 0.542347136	 0.000194531
C	 -0.536274800	 -1.205735864	 0.000112531
H	 -0.975915800	 -1.640308864	 -0.889589469
H	 -0.975698800	 -1.640348864	 0.889902531
H	 0.538614200	 -1.340294864	 -0.000019469
Cl	 2.111707000	 -0.538824000	 0.000181000
C	 1.762530000	 1.209208000	 0.000110000
H	 0.687619000	 1.343583000	 0.000122000
H	 2.201980000	 1.643830000	 -0.889662000
H	 2.202008000	 1.643908000	 0.889831000
