10
0  1  0  1  0  1   5   5 -1.55160 -0.99450 -1.30489 -1.86199 -1.43861 -1.68208  2.46697  2.45661  2.45968 -0.96664 -5.40084 10.14776 -1.54954 -4.16401
Cl	 -1.703485235	 0.540037612	 -0.235279553
C	 -1.354575235	 -1.208045388	 -0.235361553
H	 -1.794216235	 -1.642618388	 -1.125063553
H	 -1.793999235	 -1.642658388	 0.654428447
H	 -0.279686235	 -1.342604388	 -0.235493553
Cl	 1.560672000	 -0.540457000	 -2.056289000
C	 1.257618000	 1.207711000	 -1.884229000
H	 0.326675000	 1.342513000	 -1.346954000
H	 1.193154000	 1.640913000	 -2.875131000
H	 2.082921000	 1.643482000	 -1.334059000
