10
0  1  0  1  0  1   5   5 -1.49715 -1.30409 -1.37406 -1.56712 -1.44709 -1.51566  0.13238  0.12972  0.13167 -1.34908 -1.19560  1.83010 -0.34241 -1.64117
Cl	 -1.801679977	 2.816145184	 0.000302318
C	 -2.373555977	 1.127806184	 0.000227318
H	 -2.971603977	 0.971279184	 -0.889461682
H	 -2.971393977	 0.971128184	 0.890030318
H	 -1.509953977	 0.473830184	 0.000071318
Cl	 2.111707000	 -0.538824000	 0.000181000
C	 1.762530000	 1.209208000	 0.000110000
H	 0.687619000	 1.343583000	 0.000122000
H	 2.201980000	 1.643830000	 -0.889662000
H	 2.202008000	 1.643908000	 0.889831000
