10
0  1  0  1  0  1   5   5 -1.55288 -0.99588 -1.30621 -1.86322 -1.43992 -1.68334  2.46501  2.45465  2.45772 -0.96807 -5.39900 10.14288 -1.54866 -4.16329
Cl	 -1.152461266	 0.541512137	 1.821148473
C	 -0.849638266	 -1.206692863	 1.649069473
H	 -1.675054266	 -1.642364863	 1.098992473
H	 -0.785124266	 -1.639893863	 2.639968473
H	 0.081231734	 -1.341631863	 1.111700473
Cl	 2.111707000	 -0.538824000	 0.000181000
C	 1.762530000	 1.209208000	 0.000110000
H	 0.687619000	 1.343583000	 0.000122000
H	 2.201980000	 1.643830000	 -0.889662000
H	 2.202008000	 1.643908000	 0.889831000
