10
0  1  0  1  0  1   5   5 -2.47655 -2.05307 -2.25357 -2.67705 -2.37900 -2.55150  0.49889  0.48896  0.48850 -2.08742 -3.79075  5.89959 -1.05879 -3.13747
Cl	 -1.877909643	 0.539557063	 0.000198149
C	 -1.528999643	 -1.208525937	 0.000116149
H	 -1.968640643	 -1.643098937	 -0.889585851
H	 -1.968423643	 -1.643138937	 0.889906149
H	 -0.454110643	 -1.343084937	 -0.000015851
Cl	 2.111707000	 -0.538824000	 0.000181000
C	 1.762530000	 1.209208000	 0.000110000
H	 0.687619000	 1.343583000	 0.000122000
H	 2.201980000	 1.643830000	 -0.889662000
H	 2.202008000	 1.643908000	 0.889831000
