10
0  1  0  1  0  1   5   5 -2.36436 -2.15958 -2.26476 -2.46954 -2.32955 -2.40862 -0.86301 -0.86179 -0.85738 -2.24649 -1.79838  1.54020 -0.34415 -1.64417
Cl	 -1.662684908	 0.540259051	 -2.115326208
C	 -1.359860908	 -1.207960949	 -1.943410208
H	 -1.295598908	 -1.641112949	 -2.934348208
H	 -2.185152908	 -1.643642949	 -1.393154208
H	 -0.428864908	 -1.342948949	 -1.406272208
Cl	 2.111707000	 -0.538824000	 0.000181000
C	 1.762530000	 1.209208000	 0.000110000
H	 0.687619000	 1.343583000	 0.000122000
H	 2.201980000	 1.643830000	 -0.889662000
H	 2.202008000	 1.643908000	 0.889831000
