10
0  1  0  1  0  1   5   5 -2.63570 -2.33132 -2.46806 -2.77244 -2.56669 -2.68550 -0.50183 -0.50663 -0.50629 -2.41317 -2.60875  3.11450 -0.62802 -2.29090
Cl	 -2.076454612	 0.538999049	 0.000198873
C	 -1.727544612	 -1.209083951	 0.000116873
H	 -2.167185612	 -1.643656951	 -0.889585127
H	 -2.166968612	 -1.643696951	 0.889906873
H	 -0.652655612	 -1.343642951	 -0.000015127
Cl	 2.111707000	 -0.538824000	 0.000181000
C	 1.762530000	 1.209208000	 0.000110000
H	 0.687619000	 1.343583000	 0.000122000
H	 2.201980000	 1.643830000	 -0.889662000
H	 2.202008000	 1.643908000	 0.889831000
