10
0  1  0  1  0  1   5   5 -2.44230 -2.22495 -2.32304 -2.54039 -2.39563 -2.47847 -0.91183 -0.91171 -0.90968 -2.31881 -1.89004  1.63158 -0.38097 -1.67938
Cl	 -2.274999580	 0.538441034	 0.000199596
C	 -1.926089580	 -1.209641966	 0.000117596
H	 -2.365730580	 -1.644214966	 -0.889584404
H	 -2.365513580	 -1.644254966	 0.889907596
H	 -0.851200580	 -1.344200966	 -0.000014404
Cl	 2.111707000	 -0.538824000	 0.000181000
C	 1.762530000	 1.209208000	 0.000110000
H	 0.687619000	 1.343583000	 0.000122000
H	 2.201980000	 1.643830000	 -0.889662000
H	 2.202008000	 1.643908000	 0.889831000
