10
0  1  0  1  0  1   5   5 -1.33836 -1.20656 -1.25175 -1.38355 -1.30534 -1.34943 -0.19899 -0.19894 -0.19627 -1.25934 -0.77913  0.87271 -0.19269 -1.16023
Cl	 -2.000826111	 2.930377200	 0.000308321
C	 -2.572702111	 1.242038200	 0.000233321
H	 -3.170750111	 1.085511200	 -0.889455679
H	 -3.170540111	 1.085360200	 0.890036321
H	 -1.709100111	 0.588062200	 0.000077321
Cl	 2.111707000	 -0.538824000	 0.000181000
C	 1.762530000	 1.209208000	 0.000110000
H	 0.687619000	 1.343583000	 0.000122000
H	 2.201980000	 1.643830000	 -0.889662000
H	 2.202008000	 1.643908000	 0.889831000
