10
0  1  0  1  0  1   5   5 -2.41685 -2.01725 -2.22505 -2.62465 -2.33588 -2.50170  0.47684  0.47047  0.47314 -2.05887 -3.55518  5.45868 -0.91936 -3.04301
Cl	 -1.322530668	 0.541029629	 1.919339301
C	 -1.019707668	 -1.207175371	 1.747260301
H	 -1.845123668	 -1.642847371	 1.197183301
H	 -0.955193668	 -1.640376371	 2.738159301
H	 -0.088837668	 -1.342114371	 1.209891301
Cl	 2.111707000	 -0.538824000	 0.000181000
C	 1.762530000	 1.209208000	 0.000110000
H	 0.687619000	 1.343583000	 0.000122000
H	 2.201980000	 1.643830000	 -0.889662000
H	 2.202008000	 1.643908000	 0.889831000
