10
0  1  0  1  0  1   5   5 -2.06586 -1.91981 -1.99987 -2.14593 -2.04604 -2.10136 -0.98244 -0.97896 -0.97322 -2.00104 -1.37577  0.80990 -0.21820 -1.21697
Cl	 -1.832755033	 0.539785578	 -2.213515789
C	 -1.529931033	 -1.208434422	 -2.041599789
H	 -1.465669033	 -1.641586422	 -3.032537789
H	 -2.355223033	 -1.644116422	 -1.491343789
H	 -0.598935033	 -1.343422422	 -1.504461789
Cl	 2.111707000	 -0.538824000	 0.000181000
C	 1.762530000	 1.209208000	 0.000110000
H	 0.687619000	 1.343583000	 0.000122000
H	 2.201980000	 1.643830000	 -0.889662000
H	 2.202008000	 1.643908000	 0.889831000
