10
0  1  0  1  0  1   5   5 -2.06592 -1.91985 -1.99992 -2.14598 -2.04611 -2.10142 -0.98238 -0.97891 -0.97316 -2.00109 -1.37596  0.81025 -0.21827 -1.21711
Cl	 -2.383762896	 0.538141815	 0.157483804
C	 -2.034852896	 -1.209941185	 0.157401804
H	 -2.474493896	 -1.644514185	 -0.732300196
H	 -2.474276896	 -1.644554185	 1.047191804
H	 -0.959963896	 -1.344500185	 0.157269804
Cl	 1.560672000	 -0.540457000	 -2.056289000
C	 1.257618000	 1.207711000	 -1.884229000
H	 0.326675000	 1.342513000	 -1.346954000
H	 1.193154000	 1.640913000	 -2.875131000
H	 2.082921000	 1.643482000	 -1.334059000
