10
0  1  0  1  0  1   5   5 -2.41639 -2.01671 -2.22455 -2.62422 -2.33539 -2.50124  0.47780  0.47142  0.47410 -2.05828 -3.55625  5.46133 -0.91984 -3.04352
Cl	 -1.873554650	 0.539563663	 -0.137088714
C	 -1.524644650	 -1.208519337	 -0.137170714
H	 -1.964285650	 -1.643092337	 -1.026872714
H	 -1.964068650	 -1.643132337	 0.752619286
H	 -0.449755650	 -1.343078337	 -0.137302714
Cl	 1.560672000	 -0.540457000	 -2.056289000
C	 1.257618000	 1.207711000	 -1.884229000
H	 0.326675000	 1.342513000	 -1.346954000
H	 1.193154000	 1.640913000	 -2.875131000
H	 2.082921000	 1.643482000	 -1.334059000
