10
0  1  0  1  0  1   5   5 -1.44283 -1.32295 -1.39100 -1.51089 -1.42957 -1.47479 -0.54902 -0.55059 -0.54634 -1.36336 -0.92521  0.73724 -0.18014 -0.99525
Cl	 -2.232514762	 -1.825524189	 0.000090691
C	 -1.056308762	 -3.164954189	 0.000024691
H	 -1.219741762	 -3.761118189	 -0.889686309
H	 -1.219573762	 -3.761059189	 0.889805691
H	 -0.058147762	 -2.744041189	 -0.000082309
Cl	 2.111707000	 -0.538824000	 0.000181000
C	 1.762530000	 1.209208000	 0.000110000
H	 0.687619000	 1.343583000	 0.000122000
H	 2.201980000	 1.643830000	 -0.889662000
H	 2.202008000	 1.643908000	 0.889831000
