10
0  1  0  1  0  1   5   5 46.88117 49.16084 47.31522 45.03555 47.11550 45.84164 61.72726 61.71743 61.54821 43.77074 -45.31619 127.79701 -21.96755 -16.74253
Cl	 -1.424645310	 0.145006091	 0.000212854
C	 -1.075735310	 -1.603076909	 0.000130854
H	 -1.515376310	 -2.037649909	 -0.889571146
H	 -1.515159310	 -2.037689909	 0.889920854
H	 -0.000846310	 -1.737635909	 -0.000001146
Cl	 1.293861000	 -2.524615000	 0.000266000
C	 1.865481000	 -0.836186000	 0.000194000
H	 1.001769000	 -0.182358000	 0.000184000
H	 2.463385000	 -0.679524000	 -0.889567000
H	 2.463413000	 -0.679457000	 0.889926000
