10
0  1  0  1  0  1   5   5  7.28019  8.22314  7.59327  6.65032  7.44120  6.97972 14.27229 14.26193 14.25185  8.06680 -12.48923 32.57942 -4.88349 -7.13991
Cl	 -1.822937497	 0.373470121	 0.000204818
C	 -1.474027497	 -1.374612879	 0.000122818
H	 -1.913668497	 -1.809185879	 -0.889579182
H	 -1.913451497	 -1.809225879	 0.889912818
H	 -0.399138497	 -1.509171879	 -0.000009182
Cl	 1.293861000	 -2.524615000	 0.000266000
C	 1.865481000	 -0.836186000	 0.000194000
H	 1.001769000	 -0.182358000	 0.000184000
H	 2.463385000	 -0.679524000	 -0.889567000
H	 2.463413000	 -0.679457000	 0.889926000
