10
0  1  0  1  0  1   5   5 -2.06580 -1.91973 -1.99980 -2.14586 -2.04597 -2.10130 -0.98241 -0.97894 -0.97319 -2.00096 -1.37570  0.80985 -0.21819 -1.21692
Cl	 -1.832738876	 0.539582105	 2.213911787
C	 -1.529915876	 -1.208622895	 2.041832787
H	 -2.355331876	 -1.644294895	 1.491755787
H	 -1.465401876	 -1.641823895	 3.032731787
H	 -0.599045876	 -1.343561895	 1.504463787
Cl	 2.111707000	 -0.538824000	 0.000181000
C	 1.762530000	 1.209208000	 0.000110000
H	 0.687619000	 1.343583000	 0.000122000
H	 2.201980000	 1.643830000	 -0.889662000
H	 2.202008000	 1.643908000	 0.889831000
