10
0  1  0  1  0  1   5   5 -1.59967 -1.35892 -1.49825 -1.73900 -1.56552 -1.66356  0.25034  0.24522  0.25057 -1.34545 -1.83679  2.94082 -0.52000 -1.92948
Cl	 -2.144666637	 0.519535348	 0.000199918
C	 -1.795756637	 -1.228547652	 0.000117918
H	 -2.235397637	 -1.663120652	 -0.889584082
H	 -2.235180637	 -1.663160652	 0.889907918
H	 -0.720867637	 -1.363106652	 -0.000014082
Cl	 1.827087000	 1.589844000	 0.000094000
C	 0.650675000	 2.929096000	 0.000043000
H	 -0.347413000	 2.508012000	 0.000078000
H	 0.813920000	 3.525211000	 -0.889735000
H	 0.813942000	 3.525299000	 0.889758000
