10
0  1  0  1  0  1   5   5 -2.41636 -2.01673 -2.22456 -2.62418 -2.33539 -2.50122  0.47753  0.47116  0.47384 -2.05831 -3.55581  5.46042 -0.91969 -3.04323
Cl	 -1.873553714	 0.539574966	 0.137484969
C	 -1.524643714	 -1.208508034	 0.137402969
H	 -1.964284714	 -1.643081034	 -0.752299031
H	 -1.964067714	 -1.643121034	 1.027192969
H	 -0.449754714	 -1.343067034	 0.137270969
Cl	 1.560686000	 -0.540288000	 2.056655000
C	 1.257631000	 1.207867000	 1.884452000
H	 0.326670000	 1.342624000	 1.347197000
H	 2.082918000	 1.643587000	 1.334220000
H	 1.193199000	 1.641155000	 2.875320000
