10
0  1  0  1  0  1   5   5 -0.95233 -0.87808 -0.91871 -0.99296 -0.93723 -0.96754 -0.35716 -0.35640 -0.35186 -0.90274 -0.44804  0.25719 -0.06399 -0.64790
Cl	 1.779930000	 0.000000000	 0.000000000
C	 0.000000000	 0.000000000	 0.000000000
H	 -0.346170000	 1.026610000	 0.000000000
H	 -0.346170000	 -0.513310000	 0.889070000
H	 -0.346170000	 -0.513310000	 -0.889070000
Cl	 -3.446807338	 -1.990032240	 0.000000000
C	 -4.988397338	 -2.880052240	 0.000000000
H	 -5.799527338	 -2.162012240	 0.000000000
H	 -5.028987338	 -3.496642240	 0.889750000
H	 -5.028987338	 -3.496642240	 -0.889750000
