10
0  1  0  1  0  1   5   5 -1.08832 -0.98771 -1.03897 -1.13959 -1.06473 -1.10642 -0.27512 -0.27477 -0.27101 -1.00879 -0.55006  0.49133 -0.09409 -0.85596
Cl	 1.779930000	 0.000000000	 0.000000000
C	 0.000000000	 0.000000000	 0.000000000
H	 -0.346170000	 1.026610000	 0.000000000
H	 -0.346170000	 -0.513310000	 0.889070000
H	 -0.346170000	 -0.513310000	 -0.889070000
Cl	 -3.290134277	 -1.899576229	 0.000000000
C	 -4.831724277	 -2.789596229	 0.000000000
H	 -5.642854277	 -2.071556229	 0.000000000
H	 -4.872314277	 -3.406186229	 0.889750000
H	 -4.872314277	 -3.406186229	 -0.889750000
