10
0  1  0  1  0  1   5   5 -0.91141 -0.67584 -0.79361 -1.02919 -0.84606 -0.95269  1.04964  1.04351  1.04170 -0.60941 -1.45174  3.23035 -0.45705 -1.93097
Cl	 1.779930000	 0.000000000	 0.000000000
C	 0.000000000	 0.000000000	 0.000000000
H	 -0.346170000	 1.026610000	 0.000000000
H	 -0.346170000	 -0.513310000	 0.889070000
H	 -0.346170000	 -0.513310000	 -0.889070000
Cl	 -2.895445027	 1.671674833	 0.000000000
C	 -4.437025027	 2.561714833	 0.000000000
H	 -4.220745027	 3.623194833	 0.000000000
H	 -4.991305027	 2.288574833	 0.889750000
H	 -4.991305027	 2.288574833	 -0.889750000
