10
0  1  0  1  0  1   5   5 -0.99969 -0.90902 -0.95324 -1.04391 -0.97710 -1.01417 -0.26403 -0.26432 -0.26064 -0.93371 -0.50785  0.45659 -0.09838 -0.78408
Cl	 1.779930000	 0.000000000	 0.000000000
C	 0.000000000	 0.000000000	 0.000000000
H	 -0.346170000	 1.026610000	 0.000000000
H	 -0.346170000	 -0.513310000	 0.889070000
H	 -0.346170000	 -0.513310000	 -0.889070000
Cl	 -3.378019198	 1.950287305	 0.000000000
C	 -4.919599198	 2.840327305	 0.000000000
H	 -4.703319198	 3.901807305	 0.000000000
H	 -5.473879198	 2.567187305	 0.889750000
H	 -5.473879198	 2.567187305	 -0.889750000
