10
0  1  0  1  0  1   5   5 -0.87592 -0.80927 -0.84429 -0.91093 -0.86112 -0.88820 -0.34295 -0.34208 -0.33802 -0.83502 -0.41615  0.23574 -0.06509 -0.58951
Cl	 1.779930000	 0.000000000	 0.000000000
C	 0.000000000	 0.000000000	 0.000000000
H	 -0.346170000	 1.026610000	 0.000000000
H	 -0.346170000	 -0.513310000	 0.889070000
H	 -0.346170000	 -0.513310000	 -0.889070000
Cl	 -3.538877255	 2.043158129	 0.000000000
C	 -5.080457255	 2.933198129	 0.000000000
H	 -4.864177255	 3.994678129	 0.000000000
H	 -5.634737255	 2.660058129	 0.889750000
H	 -5.634737255	 2.660058129	 -0.889750000
