10
0  1  0  1  0  1   5   5 -0.91220 -0.84197 -0.87963 -0.94986 -0.89724 -0.92584 -0.34919 -0.34850 -0.34417 -0.86757 -0.43208  0.24745 -0.06499 -0.61795
Cl	 1.779930000	 0.000000000	 0.000000000
C	 0.000000000	 0.000000000	 0.000000000
H	 -0.346170000	 1.026610000	 0.000000000
H	 -0.346170000	 -0.513310000	 0.889070000
H	 -0.346170000	 -0.513310000	 -0.889070000
Cl	 -3.493443873	 -0.000011934	 -2.016939263
C	 -5.035023873	 -0.000001934	 -2.906969263
H	 -5.332443873	 1.027408066	 -3.078689263
H	 -5.777333873	 -0.513691934	 -2.308149263
H	 -4.887583873	 -0.513691934	 -3.849239263
