10
0  1  0  1  0  1   5   5 -1.14707 -1.01674 -1.07913 -1.20947 -1.11267 -1.16754 -0.08210 -0.08366 -0.08107 -1.02894 -0.69390  0.91120 -0.15218 -1.09406
Cl	 1.779930000	 0.000000000	 0.000000000
C	 0.000000000	 0.000000000	 0.000000000
H	 -0.346170000	 1.026610000	 0.000000000
H	 -0.346170000	 -0.513310000	 0.889070000
H	 -0.346170000	 -0.513310000	 -0.889070000
Cl	 -3.175858067	 -0.000010849	 1.833581148
C	 -4.717438067	 -0.000000849	 2.723611148
H	 -5.014858067	 1.027409151	 2.895331148
H	 -4.569998067	 -0.513690849	 3.665881148
H	 -5.459748067	 -0.513690849	 2.124791148
