10
0  1  0  1  0  1   5   5 -1.04159 -0.94618 -0.99373 -1.08913 -1.01844 -1.05773 -0.26831 -0.26849 -0.26475 -0.96928 -0.52928  0.47581 -0.09704 -0.81877
Cl	 1.779930000	 0.000000000	 0.000000000
C	 0.000000000	 0.000000000	 0.000000000
H	 -0.346170000	 1.026610000	 0.000000000
H	 -0.346170000	 -0.513310000	 0.889070000
H	 -0.346170000	 -0.513310000	 -0.889070000
Cl	 -3.334650970	 -0.000011392	 -1.925260206
C	 -4.876230970	 -0.000001392	 -2.815290206
H	 -5.173650970	 1.027408608	 -2.987010206
H	 -5.618540970	 -0.513691392	 -2.216470206
H	 -4.728790970	 -0.513691392	 -3.757560206
