10
0  1  0  1  0  1   5   5 -1.04450 -0.96367 -1.01234 -1.09316 -1.02946 -1.06413 -0.37984 -0.37891 -0.37380 -0.98838 -0.47346  0.27450 -0.07226 -0.71716
Cl	 5.159990000	 0.000010000	 0.000000000
C	 3.380060000	 0.000010000	 0.000000000
H	 3.033890000	 1.026620000	 0.000000000
H	 3.033890000	 -0.513300000	 0.889070000
H	 3.033890000	 -0.513300000	 -0.889070000
Cl	 -0.474421842	 -0.000001404	 0.000000000
C	 -2.254481842	 0.000008596	 0.000000000
H	 -2.597921842	 1.027418596	 0.000000000
H	 -2.597931842	 -0.513681404	 0.889750000
H	 -2.597931842	 -0.513681404	 -0.889750000
