10
0  1  0  1  0  1   5   5 -1.30304 -1.16520 -1.23674 -1.37457 -1.26519 -1.32612 -0.15608 -0.15467 -0.14919 -1.18243 -0.83797  1.00362 -0.15936 -1.18872
Cl	 4.468680000	 0.000010000	 -2.579990000
C	 2.927220000	 0.000010000	 -1.690030000
H	 2.627430000	 1.026620000	 -1.516940000
H	 3.071960000	 -0.513300000	 -0.746990000
H	 2.182890000	 -0.513300000	 -2.286900000
Cl	 -0.156723359	 -0.000000535	 0.090484206
C	 -1.936783359	 0.000009465	 0.090484206
H	 -2.280223359	 1.027419465	 0.090484206
H	 -2.280233359	 -0.513680535	 0.980234206
H	 -2.280233359	 -0.513680535	 -0.799265794
