10
0  1  0  1  0  1   5   5 -1.20066 -1.06342 -1.13042 -1.26765 -1.16548 -1.22356 -0.08613 -0.08671 -0.08437 -1.07219 -0.72153  0.93403 -0.14520 -1.13950
Cl	 1.779930000	 0.000000000	 0.000000000
C	 0.000000000	 0.000000000	 0.000000000
H	 -0.346170000	 1.026610000	 0.000000000
H	 -0.346170000	 -0.513310000	 0.889070000
H	 -0.346170000	 -0.513310000	 -0.889070000
Cl	 -3.133461217	 -1.809120218	 0.000000000
C	 -4.675051217	 -2.699140218	 0.000000000
H	 -5.486181217	 -1.981100218	 0.000000000
H	 -4.715641217	 -3.315730218	 0.889750000
H	 -4.715641217	 -3.315730218	 -0.889750000
