10
0  1  0  1  0  1   5   5 -1.30336 -1.16552 -1.23717 -1.37502 -1.26562 -1.32652 -0.15683 -0.15540 -0.14985 -1.18312 -0.83907  1.00434 -0.15976 -1.18863
Cl	 4.468690000	 -2.579990000	 0.000000000
C	 2.927220000	 -1.690020000	 0.000000000
H	 3.140740000	 -0.627870000	 0.000000000
H	 2.370780000	 -1.961480000	 0.889070000
H	 2.370780000	 -1.961480000	 -0.889070000
Cl	 -0.156781903	 0.090517471	 0.000000000
C	 -1.936841903	 0.090527471	 0.000000000
H	 -2.280281903	 1.117937471	 0.000000000
H	 -2.280291903	 -0.423162529	 0.889750000
H	 -2.280291903	 -0.423162529	 -0.889750000
