10
0  1  0  1  0  1   5   5 -1.18796 -1.07956 -1.14167 -1.25007 -1.16511 -1.21228 -0.28693 -0.28622 -0.28159 -1.09732 -0.57137  0.51882 -0.10391 -0.94087
Cl	 5.159990000	 0.000010000	 0.000000000
C	 3.380060000	 0.000010000	 0.000000000
H	 3.033890000	 1.026620000	 0.000000000
H	 3.033890000	 -0.513300000	 0.889070000
H	 3.033890000	 -0.513300000	 -0.889070000
Cl	 -0.299218121	 -0.000000885	 0.000000000
C	 -2.079278121	 0.000009115	 0.000000000
H	 -2.422718121	 1.027419115	 0.000000000
H	 -2.422728121	 -0.513680885	 0.889750000
H	 -2.422728121	 -0.513680885	 -0.889750000
