10
0  1  0  1  0  1   5   5  1.23683  1.77540  1.42404  0.88547  1.34168  1.07257  5.49862  5.49223  5.47953  2.11550 -4.06613 11.49001 -1.25423 -4.05416
Cl	 5.159990000	 0.000010000	 0.000000000
C	 3.380060000	 0.000010000	 0.000000000
H	 3.033890000	 1.026620000	 0.000000000
H	 3.033890000	 -0.513300000	 0.889070000
H	 3.033890000	 -0.513300000	 -0.889070000
Cl	 0.576800479	 0.000001706	 0.000000000
C	 -1.203259521	 0.000011706	 0.000000000
H	 -1.546699521	 1.027421706	 0.000000000
H	 -1.546709521	 -0.513678294	 0.889750000
H	 -1.546709521	 -0.513678294	 -0.889750000
