10
0  1  0  1  0  1   5   5 11.00950 12.08027 11.29950 10.22870 11.18684 10.62121 18.70158 18.69350 18.66575 12.58846 -13.08484 36.90840 -3.92417 -7.31092
Cl	 4.468690000	 -2.579990000	 0.000000000
C	 2.927220000	 -1.690020000	 0.000000000
H	 3.140740000	 -0.627870000	 0.000000000
H	 2.370780000	 -1.961480000	 0.889070000
H	 2.370780000	 -1.961480000	 -0.889070000
Cl	 0.768418668	 -0.443643770	 0.000000000
C	 -1.011641332	 -0.443633770	 0.000000000
H	 -1.355081332	 0.583776230	 0.000000000
H	 -1.355091332	 -0.957323770	 0.889750000
H	 -1.355091332	 -0.957323770	 -0.889750000
