10
0  1  0  1  0  1   5   5 -1.16533 -0.98664 -1.07239 -1.25108 -1.11614 -1.19393  0.30464  0.30133  0.30186 -0.97107 -0.98404  1.73633 -0.25102 -1.47234
Cl	 1.779930000	 0.000000000	 0.000000000
C	 0.000000000	 0.000000000	 0.000000000
H	 -0.346170000	 1.026610000	 0.000000000
H	 -0.346170000	 -0.513310000	 0.889070000
H	 -0.346170000	 -0.513310000	 -0.889070000
Cl	 -3.017065163	 -0.000010307	 -1.741902091
C	 -4.558645163	 -0.000000307	 -2.631932091
H	 -4.856065163	 1.027409693	 -2.803652091
H	 -5.300955163	 -0.513690307	 -2.033112091
H	 -4.411205163	 -0.513690307	 -3.574202091
