10
0  1  0  1  0  1   5   5 -1.18808 -1.08642 -1.14019 -1.24186 -1.16143 -1.20545 -0.34664 -0.34512 -0.33924 -1.11583 -0.65223  0.53997 -0.10587 -0.89770
Cl	 4.468680000	 0.000010000	 2.579990000
C	 2.927220000	 0.000010000	 1.690030000
H	 2.627430000	 1.026620000	 1.516940000
H	 2.182890000	 -0.513300000	 2.286900000
H	 3.071960000	 -0.513300000	 0.746990000
Cl	 -0.310920527	 -0.000001062	 -0.179509917
C	 -2.090980527	 0.000008938	 -0.179509917
H	 -2.434420527	 1.027418938	 -0.179509917
H	 -2.434430527	 -0.513681062	 0.710240083
H	 -2.434430527	 -0.513681062	 -1.069259917
