10
0  1  0  1  0  1   5   5 11.51760 12.56879 11.82906 10.77780 11.71454 11.14258 19.12894 19.11385 19.04176 12.95006 -13.54295 38.81187 -5.05377 -7.26509
Cl	 1.779930000	 0.000000000	 0.000000000
C	 0.000000000	 0.000000000	 0.000000000
H	 -0.346170000	 1.026610000	 0.000000000
H	 -0.346170000	 -0.513310000	 0.889070000
H	 -0.346170000	 -0.513310000	 -0.889070000
Cl	 -2.223100647	 -0.000007595	 -1.283506804
C	 -3.764680647	 0.000002405	 -2.173536804
H	 -4.062100647	 1.027412405	 -2.345256804
H	 -4.506990647	 -0.513687595	 -1.574716804
H	 -3.617240647	 -0.513687595	 -3.115806804
