10
0  1  0  1  0  1   5   5 -1.13527 -0.87703 -1.01963 -1.27787 -1.06820 -1.18798  1.00905  1.00874  1.01215 -0.81141 -1.69744  3.41596 -0.40642 -2.12350
Cl	 4.468690000	 2.579990000	 0.000000000
C	 2.927220000	 1.690020000	 0.000000000
H	 3.140740000	 0.627870000	 0.000000000
H	 2.370780000	 1.961480000	 0.889070000
H	 2.370780000	 1.961480000	 -0.889070000
Cl	 0.151670977	 0.087566696	 0.000000000
C	 -1.628389023	 0.087576696	 0.000000000
H	 -1.971829023	 1.114986696	 0.000000000
H	 -1.971839023	 -0.426113304	 0.889750000
H	 -1.971839023	 -0.426113304	 -0.889750000
