10
0  1  0  1  0  1   5   5  1.33396  1.82405  1.53358  1.04349  1.45221  1.20801  5.24503  5.23503  5.21627  2.12399 -4.24277 11.53290 -1.42797 -3.73817
Cl	 1.779930000	 0.000000000	 0.000000000
C	 0.000000000	 0.000000000	 0.000000000
H	 -0.346170000	 1.026610000	 0.000000000
H	 -0.346170000	 -0.513310000	 0.889070000
H	 -0.346170000	 -0.513310000	 -0.889070000
Cl	 -2.540686453	 -0.000008680	 -1.466864919
C	 -4.082266453	 0.000001320	 -2.356894919
H	 -4.379686453	 1.027411320	 -2.528614919
H	 -4.824576453	 -0.513688680	 -1.758074919
H	 -3.934826453	 -0.513688680	 -3.299164919
