10
0  1  0  1  0  1   5   5 -0.96545 -0.71886 -0.84255 -1.08914 -0.89766 -1.00961  1.06737  1.06211  1.05915 -0.64772 -1.50824  3.28940 -0.43344 -1.99544
Cl	 1.779930000	 0.000000000	 0.000000000
C	 0.000000000	 0.000000000	 0.000000000
H	 -0.346170000	 1.026610000	 0.000000000
H	 -0.346170000	 -0.513310000	 0.889070000
H	 -0.346170000	 -0.513310000	 -0.889070000
Cl	 -2.858272260	 -0.000009764	 1.650223033
C	 -4.399852260	 0.000000236	 2.540253033
H	 -4.697272260	 1.027410236	 2.711973033
H	 -4.252412260	 -0.513689764	 3.482523033
H	 -5.142162260	 -0.513689764	 1.941433033
