10
0  1  0  1  0  1   5   5 -1.04702 -0.97166 -1.01367 -1.08903 -1.02925 -1.06124 -0.42866 -0.42713 -0.42103 -1.00445 -0.53791  0.28960 -0.07334 -0.68280
Cl	 4.468690000	 -2.579990000	 0.000000000
C	 2.927220000	 -1.690020000	 0.000000000
H	 3.140740000	 -0.627870000	 0.000000000
H	 2.370780000	 -1.961480000	 0.889070000
H	 2.370780000	 -1.961480000	 -0.889070000
Cl	 -0.465182094	 0.268571218	 0.000000000
C	 -2.245242094	 0.268581218	 0.000000000
H	 -2.588682094	 1.295991218	 0.000000000
H	 -2.588692094	 -0.245108782	 0.889750000
H	 -2.588692094	 -0.245108782	 -0.889750000
