10
0  1  0  1  0  1   5   5 -1.13159 -0.87288 -1.01537 -1.27408 -1.06367 -1.18385  1.01286  1.01270  1.01616 -0.80776 -1.69605  3.41847 -0.40651 -2.12367
Cl	 4.468690000	 -2.579990000	 0.000000000
C	 2.927220000	 -1.690020000	 0.000000000
H	 3.140740000	 -0.627870000	 0.000000000
H	 2.370780000	 -1.961480000	 0.889070000
H	 2.370780000	 -1.961480000	 -0.889070000
Cl	 0.151618287	 -0.087536276	 0.000000000
C	 -1.628441713	 -0.087526276	 0.000000000
H	 -1.971881713	 0.939883724	 0.000000000
H	 -1.971891713	 -0.601216276	 0.889750000
H	 -1.971891713	 -0.601216276	 -0.889750000
