10
0  1  0  1  0  1   5   5 11.57110 12.58955 11.84593 10.82750 11.73687 11.18144 19.04572 19.02990 18.95957 12.89695 -13.42124 39.07606 -5.56746 -7.19041
Cl	 1.779930000	 0.000000000	 0.000000000
C	 0.000000000	 0.000000000	 0.000000000
H	 -0.346170000	 1.026610000	 0.000000000
H	 -0.346170000	 -0.513310000	 0.889070000
H	 -0.346170000	 -0.513310000	 -0.889070000
Cl	 -2.252012799	 1.300191537	 0.000000000
C	 -3.793592799	 2.190231537	 0.000000000
H	 -3.577312799	 3.251711537	 0.000000000
H	 -4.347872799	 1.917091537	 0.889750000
H	 -4.347872799	 1.917091537	 -0.889750000
