10
0  1  0  1  0  1   5   5 -1.30511 -1.16738 -1.23910 -1.37683 -1.26766 -1.32844 -0.15850 -0.15713 -0.15160 -1.18440 -0.83990  1.00317 -0.15943 -1.18824
Cl	 4.468690000	 2.579990000	 0.000000000
C	 2.927220000	 1.690020000	 0.000000000
H	 3.140740000	 0.627870000	 0.000000000
H	 2.370780000	 1.961480000	 0.889070000
H	 2.370780000	 1.961480000	 -0.889070000
Cl	 -0.156723359	 -0.090483671	 0.000000000
C	 -1.936783359	 -0.090473671	 0.000000000
H	 -2.280223359	 0.936936329	 0.000000000
H	 -2.280233359	 -0.604163671	 0.889750000
H	 -2.280233359	 -0.604163671	 -0.889750000
