10
0  1  0  1  0  1   5   5 -1.18967 -1.08804 -1.14196 -1.24358 -1.16321 -1.20718 -0.34841 -0.34690 -0.34097 -1.11719 -0.65375  0.53971 -0.10582 -0.89733
Cl	 4.468690000	 2.579990000	 0.000000000
C	 2.927220000	 1.690020000	 0.000000000
H	 3.140740000	 0.627870000	 0.000000000
H	 2.370780000	 1.961480000	 0.889070000
H	 2.370780000	 1.961480000	 -0.889070000
Cl	 -0.310920527	 -0.179508854	 0.000000000
C	 -2.090980527	 -0.179498854	 0.000000000
H	 -2.434420527	 0.847911146	 0.000000000
H	 -2.434430527	 -0.693188854	 0.889750000
H	 -2.434430527	 -0.693188854	 -0.889750000
