10
0  1  0  1  0  1   5   5 -1.11383 -0.94325 -1.02390 -1.19448 -1.06594 -1.13979  0.29818  0.29411  0.29521 -0.93165 -0.94307  1.69168 -0.26122 -1.41904
Cl	 1.779930000	 0.000000000	 0.000000000
C	 0.000000000	 0.000000000	 0.000000000
H	 -0.346170000	 1.026610000	 0.000000000
H	 -0.346170000	 -0.513310000	 0.889070000
H	 -0.346170000	 -0.513310000	 -0.889070000
Cl	 -3.056303084	 1.764545657	 0.000000000
C	 -4.597883084	 2.654585657	 0.000000000
H	 -4.381603084	 3.716065657	 0.000000000
H	 -5.152163084	 2.381445657	 0.889750000
H	 -5.152163084	 2.381445657	 -0.889750000
