10
0  1  0  1  0  1   5   5 -1.30496 -1.15893 -1.24082 -1.38685 -1.27233 -1.33687 -0.08086 -0.08062 -0.07667 -1.15948 -0.73445  0.97577 -0.15651 -1.24429
Cl	 5.159990000	 0.000010000	 0.000000000
C	 3.380060000	 0.000010000	 0.000000000
H	 3.033890000	 1.026620000	 0.000000000
H	 3.033890000	 -0.513300000	 0.889070000
H	 3.033890000	 -0.513300000	 -0.889070000
Cl	 -0.124014401	 -0.000000367	 0.000000000
C	 -1.904074401	 0.000009633	 0.000000000
H	 -2.247514401	 1.027419633	 0.000000000
H	 -2.247524401	 -0.513680367	 0.889750000
H	 -2.247524401	 -0.513680367	 -0.889750000
