10
0  1  0  1  0  1   5   5 -1.12490 -0.85306 -1.01188 -1.28372 -1.06518 -1.19126  1.14982  1.14752  1.14814 -0.75618 -1.51895  3.39202 -0.40988 -2.21935
Cl	 5.159990000	 0.000010000	 0.000000000
C	 3.380060000	 0.000010000	 0.000000000
H	 3.033890000	 1.026620000	 0.000000000
H	 3.033890000	 -0.513300000	 0.889070000
H	 3.033890000	 -0.513300000	 -0.889070000
Cl	 0.226393039	 0.000000670	 0.000000000
C	 -1.553666961	 0.000010670	 0.000000000
H	 -1.897106961	 1.027420670	 0.000000000
H	 -1.897116961	 -0.513679330	 0.889750000
H	 -1.897116961	 -0.513679330	 -0.889750000
