10
0  1  0  1  0  1   5   5 -1.04659 -0.97121 -1.01316 -1.08854 -1.02874 -1.06075 -0.42798 -0.42645 -0.42039 -1.00364 -0.53715  0.28936 -0.07300 -0.68285
Cl	 4.468680000	 0.000010000	 -2.579990000
C	 2.927220000	 0.000010000	 -1.690030000
H	 2.627430000	 1.026620000	 -1.516940000
H	 3.071960000	 -0.513300000	 -0.746990000
H	 2.182890000	 -0.513300000	 -2.286900000
Cl	 -0.465117695	 -0.000001589	 0.268535627
C	 -2.245177695	 0.000008411	 0.268535627
H	 -2.588617695	 1.027418411	 0.268535627
H	 -2.588627695	 -0.513681589	 1.158285627
H	 -2.588627695	 -0.513681589	 -0.621214373
