10
0  1  0  1  0  1   5   5 -1.33005 -1.14236 -1.24159 -1.42928 -1.27926 -1.36395  0.23616  0.23701  0.24185 -1.13097 -1.15356  1.85575 -0.24969 -1.58346
Cl	 4.468690000	 2.579990000	 0.000000000
C	 2.927220000	 1.690020000	 0.000000000
H	 3.140740000	 0.627870000	 0.000000000
H	 2.370780000	 1.961480000	 0.889070000
H	 2.370780000	 1.961480000	 -0.889070000
Cl	 -0.002526191	 -0.001458487	 0.000000000
C	 -1.782586191	 -0.001448487	 0.000000000
H	 -2.126026191	 1.025961513	 0.000000000
H	 -2.126036191	 -0.515138487	 0.889750000
H	 -2.126036191	 -0.515138487	 -0.889750000
