10
0  1  0  1  0  1   5   5  1.26430  1.77691  1.48169  0.96908  1.39650  1.13971  5.29212  5.28331  5.26035  2.08908 -4.30092 11.49955 -1.28169 -3.82786
Cl	 1.779930000	 0.000000000	 0.000000000
C	 0.000000000	 0.000000000	 0.000000000
H	 -0.346170000	 1.026610000	 0.000000000
H	 -0.346170000	 -0.513310000	 0.889070000
H	 -0.346170000	 -0.513310000	 -0.889070000
Cl	 -2.506768973	 -1.447296175	 0.000000000
C	 -4.048358973	 -2.337316175	 0.000000000
H	 -4.859488973	 -1.619276175	 0.000000000
H	 -4.088948973	 -2.953906175	 0.889750000
H	 -4.088948973	 -2.953906175	 -0.889750000
