10
0  1  0  1  0  1   5   5 11.61860 12.75257 11.91423 10.78020 11.79348 11.18822 19.66333 19.65509 19.60890 13.26177 -12.57028 37.67115 -4.21250 -7.62661
Cl	 5.159990000	 0.000010000	 0.000000000
C	 3.380060000	 0.000010000	 0.000000000
H	 3.033890000	 1.026620000	 0.000000000
H	 3.033890000	 -0.513300000	 0.889070000
H	 3.033890000	 -0.513300000	 -0.889070000
Cl	 0.927207919	 0.000002743	 0.000000000
C	 -0.852852081	 0.000012743	 0.000000000
H	 -1.196292081	 1.027422743	 0.000000000
H	 -1.196302081	 -0.513677257	 0.889750000
H	 -1.196302081	 -0.513677257	 -0.889750000
