10
0  1  0  1  0  1   5   5 11.00840 12.07837 11.29793 10.22800 11.18561 10.62020 18.70370 18.69534 18.66737 12.59113 -13.07987 36.90306 -3.91868 -7.31338
Cl	 4.468680000	 0.000010000	 2.579990000
C	 2.927220000	 0.000010000	 1.690030000
H	 2.627430000	 1.026620000	 1.516940000
H	 2.182890000	 -0.513300000	 2.286900000
H	 3.071960000	 -0.513300000	 0.746990000
Cl	 0.768459649	 0.000002625	 0.443670056
C	 -1.011600351	 0.000012625	 0.443670056
H	 -1.355040351	 1.027422625	 0.443670056
H	 -1.355050351	 -0.513677375	 1.333420056
H	 -1.355050351	 -0.513677375	 -0.446079944
