10
0  1  0  1  0  1   5   5 -1.04775 -0.97242 -1.01447 -1.08981 -1.03003 -1.06202 -0.42926 -0.42774 -0.42165 -1.00460 -0.53833  0.28920 -0.07287 -0.68260
Cl	 4.468690000	 2.579990000	 0.000000000
C	 2.927220000	 1.690020000	 0.000000000
H	 3.140740000	 0.627870000	 0.000000000
H	 2.370780000	 1.961480000	 0.889070000
H	 2.370780000	 1.961480000	 -0.889070000
Cl	 -0.465117695	 -0.268534038	 0.000000000
C	 -2.245177695	 -0.268524038	 0.000000000
H	 -2.588617695	 0.758885962	 0.000000000
H	 -2.588627695	 -0.782214038	 0.889750000
H	 -2.588627695	 -0.782214038	 -0.889750000
