10
0  1  0  1  0  1   5   5 -1.32898 -1.13097 -1.24294 -1.44096 -1.28441 -1.37370  0.33775  0.33703  0.33990 -1.09642 -1.01712  1.82465 -0.24755 -1.65641
Cl	 5.159990000	 0.000010000	 0.000000000
C	 3.380060000	 0.000010000	 0.000000000
H	 3.033890000	 1.026620000	 0.000000000
H	 3.033890000	 -0.513300000	 0.889070000
H	 3.033890000	 -0.513300000	 -0.889070000
Cl	 0.051189319	 0.000000151	 0.000000000
C	 -1.728870681	 0.000010151	 0.000000000
H	 -2.072310681	 1.027420151	 0.000000000
H	 -2.072320681	 -0.513679849	 0.889750000
H	 -2.072320681	 -0.513679849	 -0.889750000
