8
0  1  0  1  0  1   3   5 -0.61365 -0.56361 -0.53751 -0.58754 -0.55681 -0.57326 -0.20625 -0.20397 -0.20085 -0.57380 -0.28412  0.26612 -0.08646 -0.46933
O	 2.611060000	 2.293760000	 0.033060000
H	 3.537750000	 2.294990000	 -0.213310000
H	 2.364020000	 1.364870000	 -0.000000000
Br	 -1.582537635	 -0.913680147	 0.000000000
C	 -1.247347635	 0.985279853	 0.100690000
H	 -0.179707635	 1.136939853	 0.003370000
H	 -1.788837635	 1.458399853	 -0.708620000
H	 -1.607047635	 1.332809853	 1.060810000
