8
0  1  0  1  0  1   3   5 -1.89191 -1.68084 -1.73391 -1.94499 -1.79715 -1.88399 -0.77072 -0.78067 -0.78392 -1.58461 -1.84541  1.95940 -0.51793 -1.18067
O	 3.291980000	 -1.114370000	 0.033060000
H	 3.756390000	 -1.916290000	 -0.213310000
H	 2.364020000	 -1.364870000	 -0.000000000
Br	 -0.140777391	 0.081278008	 0.000000000
C	 0.194412609	 1.980238008	 0.100690000
H	 1.262052609	 2.131898008	 0.003370000
H	 -0.347077391	 2.453358008	 -0.708620000
H	 -0.165287391	 2.327768009	 1.060810000
