8
0  1  0  1  0  1   3   5 -3.07174 -2.53346 -2.70343 -3.24171 -2.82097 -3.06319  0.17660  0.16776  0.17019 -2.20606 -6.25283  9.73547 -2.18504 -3.50366
O	 2.934990000	 0.680920000	 1.732690000
H	 3.753730000	 0.218640000	 1.920910000
H	 2.364020000	 -0.000000000	 1.364870000
Br	 0.235253086	 0.000000000	 0.135823673
C	 0.570443086	 1.898960000	 0.236513673
H	 1.638083086	 2.050620000	 0.139193673
H	 0.028953086	 2.372080000	 -0.572796327
H	 0.210743086	 2.246490000	 1.196633673
