8
0  1  0  1  0  1   3   5 -2.81696 -2.63758 -2.64543 -2.82481 -2.69304 -2.76864 -1.81627 -1.81368 -1.81231 -2.70782 -2.43788  1.42086 -0.43062 -1.26018
O	 -0.678390000	 0.186190000	 -0.655800000
H	 -1.481540000	 0.271980000	 -0.139040000
H	 0.000000000	 0.000000000	 0.000000000
Br	 2.835500149	 1.637079673	 -0.000000000
C	 2.289610149	 1.912209673	 -1.831620000
H	 1.294660149	 1.500209673	 -1.944250000
H	 2.299530149	 2.978009673	 -2.021420000
H	 3.000510149	 1.400289673	 -2.467650000
