8
0  1  0  1  0  1   3   5  0.18163  1.08218  0.73192 -0.16863  0.58615  0.14285  5.34464  5.33281  5.31633  1.60523 -10.77077 22.59516 -4.64275 -5.57642
O	 -0.678390000	 0.186190000	 -0.655800000
H	 -1.481540000	 0.271980000	 -0.139040000
H	 0.000000000	 0.000000000	 0.000000000
Br	 1.907026566	 -1.101024251	 -0.000000000
C	 1.872346566	 -0.490704251	 -1.831620000
H	 1.018076566	 0.164945749	 -1.944250000
H	 2.800316566	 0.033605749	 -2.021420000
H	 1.784466566	 -1.362324251	 -2.467650000
