8
0  1  0  1  0  1   3   5 -3.47531 -3.19476 -3.24947 -3.53002 -3.33132 -3.44663 -1.87279 -1.87713 -1.87817 -3.15361 -3.26107  2.78000 -0.82809 -1.84444
O	 -0.678390000	 0.186190000	 -0.655800000
H	 -1.481540000	 0.271980000	 -0.139040000
H	 0.000000000	 0.000000000	 0.000000000
Br	 2.886738610	 -0.000000000	 -0.000000000
C	 2.551548610	 0.511220000	 -1.831620000
H	 1.483908610	 0.651890000	 -1.944250000
H	 3.093048610	 1.429260000	 -2.021420000
H	 2.911248610	 -0.287570000	 -2.467650000
