8
0  1  0  1  0  1   3   5 10.52610 12.04581 11.29823  9.77855 11.12498 10.32151 18.77097 18.75549 18.69607 12.20828 -20.71132 52.06088 -10.09346 -9.04781
O	 -0.678390000	 0.186190000	 -0.655800000
H	 -1.481540000	 0.271980000	 -0.139040000
H	 0.000000000	 0.000000000	 0.000000000
Br	 1.668648245	 -0.963396219	 -0.000000000
C	 1.633968245	 -0.353076219	 -1.831620000
H	 0.779698245	 0.302573781	 -1.944250000
H	 2.561938245	 0.171233781	 -2.021420000
H	 1.546088245	 -1.224696219	 -2.467650000
