8
0  1  0  1  0  1   3   5 18.47880 20.05079 19.35266 17.78060 19.18895 18.35554 27.28107 27.26008 27.21454 19.55592 -28.87355 68.26397 -9.45417 -10.38033
O	 -0.678390000	 0.186190000	 -0.655800000
H	 -1.481540000	 0.271980000	 -0.139040000
H	 0.000000000	 0.000000000	 0.000000000
Br	 1.956056341	 -0.000000000	 -1.129331654
C	 0.749956341	 0.511220000	 -2.547961654
H	 -0.230963659	 0.651890000	 -2.111681654
H	 1.124016341	 1.429260000	 -2.983081654
H	 0.743456341	 -0.287570000	 -3.278631654
