8
0  1  0  1  0  1   3   5  2.44708  2.82531  2.84326  2.46504  2.78071  2.58854  5.33989  5.33689  5.31397  2.86140 -3.81928 11.82456 -1.94147 -3.20241
O	 2.611060000	 2.293760000	 0.033060000
H	 3.537750000	 2.294990000	 -0.213310000
H	 2.364020000	 1.364870000	 -0.000000000
Br	 -0.642881055	 -0.371168207	 0.000000000
C	 -0.307691055	 1.527791793	 0.100690000
H	 0.759948945	 1.679451793	 0.003370000
H	 -0.849181055	 2.000911793	 -0.708620000
H	 -0.667391055	 1.875321793	 1.060810000
