8
0  1  0  1  0  1   3   5 -3.46808 -3.04261 -3.16696 -3.59244 -3.27185 -3.45662 -0.97765 -0.98526 -0.98391 -2.80227 -4.78533  6.25230 -1.54451 -2.72472
O	 2.968050000	 0.680920000	 -1.675430000
H	 3.540420000	 0.218640000	 -2.290370000
H	 2.364020000	 -0.000000000	 -1.364870000
Br	 0.130577709	 0.000000000	 -0.075389209
C	 0.465767709	 1.898960000	 0.025300791
H	 1.533407709	 2.050620000	 -0.072019209
H	 -0.075722291	 2.372080000	 -0.784009209
H	 0.106067709	 2.246490000	 0.985420791
