8
0  1  0  1  0  1   3   5  6.25383  7.30029  6.77003  5.72357  6.63452  6.09770 11.84133 11.82263 11.79852  8.06680 -11.81896 31.23601 -5.93731 -5.41293
O	 3.291980000	 -1.114370000	 0.033060000
H	 3.756390000	 -1.916290000	 -0.213310000
H	 2.364020000	 -1.364870000	 -0.000000000
Br	 0.610661826	 -0.352566394	 0.000000000
C	 0.945851826	 1.546393606	 0.100690000
H	 2.013491826	 1.698053606	 0.003370000
H	 0.404361826	 2.019513606	 -0.708620000
H	 0.586151826	 1.893923606	 1.060810000
