8
0  1  0  1  0  1   3   5 -1.76468 -1.41773 -1.52693 -1.87388 -1.61334 -1.76427  0.16270  0.14956  0.14883 -1.12018 -3.08738  5.00299 -1.11000 -1.92579
O	 3.291980000	 -1.114370000	 0.033060000
H	 3.756390000	 -1.916290000	 -0.213310000
H	 2.364020000	 -1.364870000	 -0.000000000
Br	 0.109702348	 -0.063336792	 0.000000000
C	 0.444892348	 1.835623208	 0.100690000
H	 1.512532348	 1.987283208	 0.003370000
H	 -0.096597652	 2.308743208	 -0.708620000
H	 0.085192348	 2.183153208	 1.060810000
