8
0  1  0  1  0  1   3   5 -2.60382 -2.45673 -2.47460 -2.62169 -2.51046 -2.57346 -1.74983 -1.74749 -1.74440 -2.51736 -2.15262  1.09983 -0.35628 -1.10828
O	 -0.678390000	 0.186190000	 -0.655800000
H	 -1.481540000	 0.271980000	 -0.139040000
H	 0.000000000	 0.000000000	 0.000000000
Br	 3.073802821	 -0.000000000	 -1.774664028
C	 1.867702821	 0.511220000	 -3.193294028
H	 0.886782821	 0.651890000	 -2.757014028
H	 2.241762821	 1.429260000	 -3.628414028
H	 1.861202821	 -0.287570000	 -3.923964028
