8
0  1  0  1  0  1   3   5 -2.98594 -2.71662 -2.77540 -3.04472 -2.86402 -2.96855 -1.41984 -1.42723 -1.42739 -2.60751 -2.67910  2.68727 -0.91221 -1.70346
O	 -0.678390000	 0.186190000	 -0.655800000
H	 -1.481540000	 0.271980000	 -0.139040000
H	 0.000000000	 0.000000000	 0.000000000
Br	 2.385260483	 -0.000000000	 1.377133220
C	 3.010790483	 0.511220000	 -0.376696780
H	 2.142490483	 0.651890000	 -1.008056780
H	 3.574630483	 1.429260000	 -0.270316780
H	 3.640310483	 -0.287570000	 -0.747666780
