8
0  1  0  1  0  1   3   5 -3.18559 -2.60805 -2.77879 -3.35632 -2.90229 -3.16757  0.18658  0.17681  0.17018 -2.30760 -6.79812 10.69195 -2.47030 -3.73114
O	 -0.678390000	 0.186190000	 -0.655800000
H	 -1.481540000	 0.271980000	 -0.139040000
H	 0.000000000	 0.000000000	 0.000000000
Br	 2.474347380	 -0.000000000	 -0.000000000
C	 2.139157380	 0.511220000	 -1.831620000
H	 1.071517380	 0.651890000	 -1.944250000
H	 2.680657380	 1.429260000	 -2.021420000
H	 2.498857380	 -0.287570000	 -2.467650000
