8
0  1  0  1  0  1   3   5 -3.30324 -2.96727 -3.03807 -3.37404 -3.13038 -3.27202 -1.34286 -1.34874 -1.35058 -2.85090 -3.54350  3.91355 -1.03960 -2.18135
O	 -0.678390000	 0.186190000	 -0.655800000
H	 -1.481540000	 0.271980000	 -0.139040000
H	 0.000000000	 0.000000000	 0.000000000
Br	 2.383783207	 -1.376280313	 -0.000000000
C	 2.349103207	 -0.765960313	 -1.831620000
H	 1.494833207	 -0.110310313	 -1.944250000
H	 3.277073207	 -0.241650313	 -2.021420000
H	 2.261223207	 -1.637580313	 -2.467650000
