8
0  1  0  1  0  1   3   5 -0.68879 -0.61844 -0.58163 -0.65199 -0.60709 -0.63173 -0.08658 -0.08352 -0.08040 -0.62198 -0.38279  0.58154 -0.14741 -0.67332
O	 2.611060000	 2.293760000	 0.033060000
H	 3.537750000	 2.294990000	 -0.213310000
H	 2.364020000	 1.364870000	 -0.000000000
Br	 -1.394606319	 -0.805177759	 0.000000000
C	 -1.059416319	 1.093782241	 0.100690000
H	 0.008223681	 1.245442241	 0.003370000
H	 -1.600906319	 1.566902241	 -0.708620000
H	 -1.419116319	 1.441312241	 1.060810000
