8
0  1  0  1  0  1   3   5 -3.30264 -3.04033 -3.10079 -3.36310 -3.17965 -3.28456 -1.74648 -1.75260 -1.74989 -2.99003 -3.04797  2.55540 -0.75182 -1.74564
O	 2.934990000	 0.680920000	 1.732690000
H	 3.753730000	 0.218640000	 1.920910000
H	 2.364020000	 -0.000000000	 1.364870000
Br	 -0.119541399	 0.000000000	 -0.069017381
C	 0.215648601	 1.898960000	 0.031672619
H	 1.283288601	 2.050620000	 -0.065647381
H	 -0.325841399	 2.372080000	 -0.777637381
H	 -0.144051399	 2.246490000	 0.991792619
