8
0  1  0  1  0  1   3   5 -3.10759 -2.87419 -2.88707 -3.12046 -2.94736 -3.04777 -1.79284 -1.79184 -1.79264 -2.94411 -3.02156  2.30787 -0.61753 -1.61289
O	 -0.678390000	 0.186190000	 -0.655800000
H	 -1.481540000	 0.271980000	 -0.139040000
H	 0.000000000	 0.000000000	 0.000000000
Br	 2.706613778	 1.562666960	 -0.000000000
C	 2.160723778	 1.837796960	 -1.831620000
H	 1.165773778	 1.425796960	 -1.944250000
H	 2.170643778	 2.903596960	 -2.021420000
H	 2.871623778	 1.325876960	 -2.467650000
