8
0  1  0  1  0  1   3   5 12.25940 13.88750 13.08194 11.45390 12.90598 12.03832 21.00129 20.98580 20.91903 13.94874 -23.42530 58.36582 -11.21928 -9.77249
O	 -0.678390000	 0.186190000	 -0.655800000
H	 -1.481540000	 0.271980000	 -0.139040000
H	 0.000000000	 0.000000000	 0.000000000
Br	 1.924492407	 -0.000000000	 -0.000000000
C	 1.589302407	 0.511220000	 -1.831620000
H	 0.521662407	 0.651890000	 -1.944250000
H	 2.130802407	 1.429260000	 -2.021420000
H	 1.949002407	 -0.287570000	 -2.467650000
