8
0  1  0  1  0  1   3   5 -2.90969 -2.71261 -2.73653 -2.93360 -2.78277 -2.86975 -1.75086 -1.74925 -1.74873 -2.77873 -2.70497  1.90471 -0.52389 -1.45458
O	 -0.678390000	 0.186190000	 -0.655800000
H	 -1.481540000	 0.271980000	 -0.139040000
H	 0.000000000	 0.000000000	 0.000000000
Br	 2.934084511	 -0.000000000	 -1.693997482
C	 1.727984511	 0.511220000	 -3.112627482
H	 0.747064511	 0.651890000	 -2.676347482
H	 2.102044511	 1.429260000	 -3.547747482
H	 1.721484511	 -0.287570000	 -3.843297482
