8
0  1  0  1  0  1   3   5 -3.07607 -2.72227 -2.78174 -3.13554 -2.85358 -3.01982 -0.96893 -0.97053 -0.97819 -2.76903 -4.65405  5.59972 -1.18046 -2.53423
O	 -0.678390000	 0.186190000	 -0.655800000
H	 -1.481540000	 0.271980000	 -0.139040000
H	 0.000000000	 0.000000000	 0.000000000
Br	 2.654647891	 -0.000000000	 -1.532664388
C	 1.448547891	 0.511220000	 -2.951294388
H	 0.467627891	 0.651890000	 -2.515014388
H	 1.822607891	 1.429260000	 -3.386414388
H	 1.442047891	 -0.287570000	 -3.681964388
