8
0  1  0  1  0  1   3   5 -0.07034  0.52195  0.28098 -0.31132  0.17160 -0.10795  3.22517  3.20945  3.20859  1.14615 -5.77811 12.61940 -2.50941 -3.18573
O	 3.291980000	 -1.114370000	 0.033060000
H	 3.756390000	 -1.916290000	 -0.213310000
H	 2.364020000	 -1.364870000	 -0.000000000
Br	 0.360182087	 -0.207951593	 0.000000000
C	 0.695372087	 1.691008407	 0.100690000
H	 1.763012087	 1.842668407	 0.003370000
H	 0.153882087	 2.164128407	 -0.708620000
H	 0.335672087	 2.038538407	 1.060810000
