8
0  1  0  1  0  1   3   5 -3.48273 -3.14754 -3.23550 -3.57069 -3.32714 -3.46733 -1.53816 -1.54446 -1.54301 -3.00493 -3.77289  4.01000 -1.08011 -2.16193
O	 2.968050000	 0.680920000	 -1.675430000
H	 3.540420000	 0.218640000	 -2.290370000
H	 2.364020000	 -0.000000000	 -1.364870000
Br	 0.013028114	 0.000000000	 -0.007521799
C	 0.348218114	 1.898960000	 0.093168201
H	 1.415858114	 2.050620000	 -0.004151799
H	 -0.193271886	 2.372080000	 -0.716141799
H	 -0.011481886	 2.246490000	 1.053288201
