8
0  1  0  1  0  1   3   5 -3.47316 -3.05247 -3.16997 -3.59066 -3.27498 -3.45615 -0.92623 -0.93444 -0.93128 -2.84302 -4.81381  6.26027 -1.51732 -2.77216
O	 2.934990000	 0.680920000	 1.732690000
H	 3.753730000	 0.218640000	 1.920910000
H	 2.364020000	 -0.000000000	 1.364870000
Br	 0.116988258	 0.000000000	 0.067543322
C	 0.452178258	 1.898960000	 0.168233322
H	 1.519818258	 2.050620000	 0.070913322
H	 -0.089311742	 2.372080000	 -0.641076678
H	 0.092478258	 2.246490000	 1.128353322
