8
0  1  0  1  0  1   3   5 -1.92633 -1.65668 -1.73180 -2.00145 -1.80670 -1.92024 -0.45544 -0.46711 -0.46935 -1.47748 -2.35372  3.13441 -0.75301 -1.50515
O	 3.291980000	 -1.114370000	 0.033060000
H	 3.756390000	 -1.916290000	 -0.213310000
H	 2.364020000	 -1.364870000	 -0.000000000
Br	 -0.015537521	 0.008970608	 0.000000000
C	 0.319652479	 1.907930608	 0.100690000
H	 1.387292479	 2.059590608	 0.003370000
H	 -0.221837521	 2.381050608	 -0.708620000
H	 -0.040047521	 2.255460608	 1.060810000
