8
0  1  0  1  0  1   3   5 10.85900 12.39964 11.61692 10.07630 11.44613 10.62815 19.11384 19.09891 19.03722 12.58623 -21.17172 53.10846 -10.32664 -9.02386
O	 2.968050000	 0.680920000	 -1.675430000
H	 3.540420000	 0.218640000	 -2.290370000
H	 2.364020000	 -0.000000000	 -1.364870000
Br	 0.718325680	 0.000000000	 -0.414726259
C	 1.053515680	 1.898960000	 -0.314036259
H	 2.121155680	 2.050620000	 -0.411356259
H	 0.512025680	 2.372080000	 -1.123346259
H	 0.693815680	 2.246490000	 0.646083741
