8
0  1  0  1  0  1   3   5 16.88360 17.73658 17.43652 16.58350 17.34735 16.89718 22.90130 22.89017 22.86984 17.13375 -15.24320 48.07142 -8.30367 -7.39081
O	 2.611060000	 2.293760000	 0.033060000
H	 3.537750000	 2.294990000	 -0.213310000
H	 2.364020000	 1.364870000	 -0.000000000
Br	 -0.267018423	 -0.154163431	 0.000000000
C	 0.068171577	 1.744796569	 0.100690000
H	 1.135811577	 1.896456569	 0.003370000
H	 -0.473318423	 2.217916569	 -0.708620000
H	 -0.291528423	 2.092326569	 1.060810000
