8
0  1  0  1  0  1   3   5 -3.28934 -2.89588 -2.94048 -3.33395 -3.03006 -3.20823 -1.04231 -1.04590 -1.05179 -2.92511 -4.96779  6.00412 -1.30229 -2.65915
O	 -0.678390000	 0.186190000	 -0.655800000
H	 -1.481540000	 0.271980000	 -0.139040000
H	 0.000000000	 0.000000000	 0.000000000
Br	 2.448841038	 1.413841536	 -0.000000000
C	 1.902951038	 1.688971536	 -1.831620000
H	 0.908001038	 1.276971536	 -1.944250000
H	 1.912871038	 2.754771536	 -2.021420000
H	 2.613851038	 1.177051536	 -2.467650000
