8
0  1  0  1  0  1   3   5 -2.80043 -2.26952 -2.45369 -2.98460 -2.57563 -2.81243  0.30616  0.30016  0.29930 -1.87442 -5.46942  9.50814 -2.62451 -3.28862
O	 -0.678390000	 0.186190000	 -0.655800000
H	 -1.481540000	 0.271980000	 -0.139040000
H	 0.000000000	 0.000000000	 0.000000000
Br	 2.044508986	 -0.000000000	 1.180399903
C	 2.670038986	 0.511220000	 -0.573430097
H	 1.801738986	 0.651890000	 -1.204790097
H	 3.233878986	 1.429260000	 -0.467050097
H	 3.299558986	 -0.287570000	 -0.944400097
