8
0  1  0  1  0  1   3   5 -3.30401 -3.00085 -3.02465 -3.32781 -3.09909 -3.23269 -1.58250 -1.58360 -1.58684 -3.05973 -3.82887  3.73223 -0.89347 -2.06962
O	 -0.678390000	 0.186190000	 -0.655800000
H	 -1.481540000	 0.271980000	 -0.139040000
H	 0.000000000	 0.000000000	 0.000000000
Br	 2.577727408	 1.488254248	 -0.000000000
C	 2.031837408	 1.763384248	 -1.831620000
H	 1.036887408	 1.351384248	 -1.944250000
H	 2.041757408	 2.829184248	 -2.021420000
H	 2.742737408	 1.251464248	 -2.467650000
