8
0  1  0  1  0  1   3   5  0.41430  1.37645  0.99693  0.03478  0.84843  0.36878  5.87721  5.86518  5.84323  1.87767 -12.26837 25.40472 -5.24815 -6.01054
O	 -0.678390000	 0.186190000	 -0.655800000
H	 -1.481540000	 0.271980000	 -0.139040000
H	 0.000000000	 0.000000000	 0.000000000
Br	 2.199419893	 -0.000000000	 -0.000000000
C	 1.864229893	 0.511220000	 -1.831620000
H	 0.796589893	 0.651890000	 -1.944250000
H	 2.405729893	 1.429260000	 -2.021420000
H	 2.223929893	 -0.287570000	 -2.467650000
