8
0  1  0  1  0  1   3   5 -1.59060 -1.46058 -1.49044 -1.62046 -1.53084 -1.58414 -0.94227 -0.94774 -0.95126 -1.44885 -1.22330  0.76210 -0.25490 -0.73274
O	 3.291980000	 -1.114370000	 0.033060000
H	 3.756390000	 -1.916290000	 -0.213310000
H	 2.364020000	 -1.364870000	 -0.000000000
Br	 -0.391257130	 0.225892809	 0.000000000
C	 -0.056067130	 2.124852809	 0.100690000
H	 1.011572870	 2.276512809	 0.003370000
H	 -0.597557130	 2.597972809	 -0.708620000
H	 -0.415767130	 2.472382809	 1.060810000
