10
0  1  0  1  0  1   5   5 38.63975 41.68952 39.34168 36.29190 39.05412 37.41677 56.01804 55.99792 55.90206 38.79824 -42.76143 113.52740 -14.71931 -17.24843
Br	 -0.884954615	 0.425926812	 0.000156610
C	 -0.530836615	 -1.469713188	 0.000115610
H	 -0.977666615	 -1.891913188	 -0.891226390
H	 -0.977469615	 -1.891915188	 0.891555610
H	 0.543027385	 -1.608267188	 -0.000001390
Br	 2.177492000	 -0.607408000	 0.000145000
C	 1.823120000	 1.288186000	 0.000114000
H	 0.749234000	 1.426572000	 0.000143000
H	 2.269763000	 1.710430000	 -0.891301000
H	 2.269817000	 1.710469000	 0.891483000
