10
0  1  0  1  0  1   5   5 -2.54819 -2.04176 -2.35840 -2.86483 -2.50080 -2.71001  0.77396  0.76542  0.76837 -2.03294 -3.56269  6.00172 -1.07405 -3.39793
Br	 -1.917132642	 0.570951638	 0.151748782
C	 -1.563014642	 -1.324688362	 0.151707782
H	 -2.009844642	 -1.746888362	 -0.739634218
H	 -2.009647642	 -1.746890362	 1.043147782
H	 -0.489150642	 -1.463242362	 0.151590782
Br	 1.596274000	 -0.525706000	 2.190634000
C	 1.323449000	 1.358425000	 1.883269000
H	 0.393191000	 1.476621000	 1.341947000
H	 2.160575000	 1.725811000	 1.303055000
H	 1.277900000	 1.849870000	 2.847015000
