10
0  1  0  1  0  1   5   5 20.61912 22.64818 20.86608 18.83702 20.67604 19.58571 33.35240 33.33970 33.27534 21.97061 -24.89884 67.87717 -9.31947 -11.68825
Br	 -0.946042321	 -1.214452770	 0.000121251
C	 0.308453679	 -2.679066770	 0.000089251
H	 0.132596679	 -3.268114770	 -0.891256749
H	 0.132748679	 -3.268023770	 0.891525251
H	 1.307723679	 -2.262125770	 -0.000015749
Br	 2.177492000	 -0.607408000	 0.000145000
C	 1.823120000	 1.288186000	 0.000114000
H	 0.749234000	 1.426572000	 0.000143000
H	 2.269763000	 1.710430000	 -0.891301000
H	 2.269817000	 1.710469000	 0.891483000
