10
0  1  0  1  0  1   5   5 -1.63984 -1.31553 -1.53666 -1.86097 -1.62134 -1.75951  0.59384  0.58874  0.58961 -1.22915 -1.72569  3.32244 -0.60213 -2.22377
Br	 -2.090790926	 0.642370812	 0.000159884
C	 -1.736672926	 -1.253269188	 0.000118884
H	 -2.183502926	 -1.675469188	 -0.891223116
H	 -2.183305926	 -1.675471188	 0.891558884
H	 -0.662808926	 -1.391823188	 0.000001884
Br	 2.054442000	 1.662279000	 0.000106000
C	 0.799750000	 3.126726000	 0.000088000
H	 -0.199456000	 2.709628000	 0.000126000
H	 0.975424000	 3.715722000	 -0.891328000
H	 0.975468000	 3.715781000	 0.891456000
