10
0  1  0  1  0  1   5   5 -2.67992 -2.31496 -2.53571 -2.90068 -2.65040 -2.79398 -0.28498 -0.29176 -0.28912 -2.35816 -2.43579  3.25029 -0.67207 -2.50059
Br	 -1.515436236	 0.514463944	 2.143706072
C	 -1.242835236	 -1.369716056	 1.836454072
H	 -2.080085236	 -1.737068056	 1.256399072
H	 -1.197192236	 -1.861085056	 2.800235072
H	 -0.312670236	 -1.488068056	 1.295005072
Br	 2.177492000	 -0.607408000	 0.000145000
C	 1.823120000	 1.288186000	 0.000114000
H	 0.749234000	 1.426572000	 0.000143000
H	 2.269763000	 1.710430000	 -0.891301000
H	 2.269817000	 1.710469000	 0.891483000
