10
0  1  0  1  0  1   5   5 -1.50312 -1.33759 -1.44610 -1.61162 -1.49714 -1.56331 -0.39165 -0.39523 -0.39520 -1.34250 -0.83605  0.90353 -0.23061 -1.17937
Br	 -2.376434355	 -1.792433561	 0.000109309
C	 -1.121938355	 -3.257047561	 0.000077309
H	 -1.297795355	 -3.846095561	 -0.891268691
H	 -1.297643355	 -3.846004561	 0.891513309
H	 -0.122668355	 -2.840106561	 -0.000027691
Br	 2.177492000	 -0.607408000	 0.000145000
C	 1.823120000	 1.288186000	 0.000114000
H	 0.749234000	 1.426572000	 0.000143000
H	 2.269763000	 1.710430000	 -0.891301000
H	 2.269817000	 1.710469000	 0.891483000
