10
0  1  0  1  0  1   5   5 -1.35885 -1.20160 -1.27410 -1.43135 -1.33677 -1.39110 -0.11737 -0.12077 -0.11995 -1.25716 -0.70785  0.88113 -0.20465 -1.22579
Br	 -2.982923605	 1.236977255	 0.000154802
C	 -2.628805605	 -0.658662745	 0.000113802
H	 -3.075635605	 -1.080862745	 -0.891228198
H	 -3.075438605	 -1.080864745	 0.891553802
H	 -1.554941605	 -0.797216745	 -0.000003198
Br	 1.149213000	 -2.634540000	 0.000186000
C	 1.790115000	 -0.815721000	 0.000151000
H	 0.929295000	 -0.158932000	 0.000170000
H	 2.388048000	 -0.673373000	 -0.891260000
H	 2.388100000	 -0.673357000	 0.891524000
