10
0  1  0  1  0  1   5   5 -1.68288 -0.97363 -1.43817 -2.14742 -1.60714 -1.91845  2.92459  2.91460  2.91706 -0.87942 -5.46444 10.94075 -1.73474 -4.62099
Br	 -1.737603332	 0.545729517	 0.256417184
C	 -1.383485332	 -1.349910483	 0.256376184
H	 -1.830315332	 -1.772110483	 -0.634965816
H	 -1.830118332	 -1.772112483	 1.147816184
H	 -0.309621332	 -1.488464483	 0.256259184
Br	 1.596274000	 -0.525706000	 2.190634000
C	 1.323449000	 1.358425000	 1.883269000
H	 0.393191000	 1.476621000	 1.341947000
H	 2.160575000	 1.725811000	 1.303055000
H	 1.277900000	 1.849870000	 2.847015000
