10
0  1  0  1  0  1   5   5  5.69307  7.12119  6.08741  4.65929  5.86956  5.16454 14.51298 14.49847 14.48584  7.22407 -14.32455 34.69180 -4.55506 -8.58812
Br	 -1.378544713	 0.495285276	 0.465753987
C	 -1.024426713	 -1.400354724	 0.465712987
H	 -1.471256713	 -1.822554724	 -0.425629013
H	 -1.471059713	 -1.822556724	 1.357152987
H	 0.049437287	 -1.538908724	 0.465595987
Br	 1.596274000	 -0.525706000	 2.190634000
C	 1.323449000	 1.358425000	 1.883269000
H	 0.393191000	 1.476621000	 1.341947000
H	 2.160575000	 1.725811000	 1.303055000
H	 1.277900000	 1.849870000	 2.847015000
