10
0  1  0  1  0  1   5   5 -1.50311 -1.33754 -1.44606 -1.61164 -1.49712 -1.56331 -0.39132 -0.39491 -0.39487 -1.34244 -0.83625  0.90424 -0.23075 -1.17967
Br	 -2.499474320	 0.477233425	 0.000165164
C	 -2.145356320	 -1.418406575	 0.000124164
H	 -2.592186320	 -1.840606575	 -0.891217836
H	 -2.591989320	 -1.840608575	 0.891564164
H	 -1.071492320	 -1.556960575	 0.000007164
Br	 2.054442000	 1.662279000	 0.000106000
C	 0.799750000	 3.126726000	 0.000088000
H	 -0.199456000	 2.709628000	 0.000126000
H	 0.975424000	 3.715722000	 -0.891328000
H	 0.975468000	 3.715781000	 0.891456000
