10
0  1  0  1  0  1   5   5  5.68911  7.11713  6.08347  4.65546  5.86560  5.16067 14.50849 14.49397 14.48136  7.22051 -14.32164 34.68268 -4.55310 -8.58743
Br	 -0.797323126	 0.413651140	 -1.724714988
C	 -0.524721126	 -1.470541860	 -1.417544988
H	 -0.479308126	 -1.961900860	 -2.381340988
H	 -1.361857126	 -1.837870860	 -0.837308988
H	 0.405556874	 -1.588933860	 -0.876296988
Br	 2.177492000	 -0.607408000	 0.000145000
C	 1.823120000	 1.288186000	 0.000114000
H	 0.749234000	 1.426572000	 0.000143000
H	 2.269763000	 1.710430000	 -0.891301000
H	 2.269817000	 1.710469000	 0.891483000
