10
0  1  0  1  0  1   5   5 -1.54711 -1.31348 -1.42520 -1.65883 -1.51310 -1.59711  0.24960  0.24372  0.24428 -1.36300 -1.16215  1.93452 -0.37270 -1.76266
Br	 -1.755643257	 3.108622165	 0.000214384
C	 -2.396788257	 1.289890165	 0.000175384
H	 -2.994864257	 1.147672165	 -0.891160616
H	 -2.994675257	 1.147567165	 0.891621384
H	 -1.536072257	 0.632967165	 0.000047384
Br	 2.177492000	 -0.607408000	 0.000145000
C	 1.823120000	 1.288186000	 0.000114000
H	 0.749234000	 1.426572000	 0.000143000
H	 2.269763000	 1.710430000	 -0.891301000
H	 2.269817000	 1.710469000	 0.891483000
