10
0  1  0  1  0  1   5   5  5.69452  7.12275  6.08891  4.66069  5.87104  5.16598 14.51502 14.50051 14.48788  7.22564 -14.32604 34.69608 -4.55569 -8.58871
Br	 -1.378550046	 0.495268919	 -0.465437414
C	 -1.024432046	 -1.400371081	 -0.465478414
H	 -1.471262046	 -1.822571081	 -1.356820414
H	 -1.471065046	 -1.822573081	 0.425961586
H	 0.049431954	 -1.538925081	 -0.465595414
Br	 1.596249000	 -0.525783000	 -2.190340000
C	 1.323427000	 1.358359000	 -1.883038000
H	 0.393200000	 1.476571000	 -1.341665000
H	 1.277816000	 1.849764000	 -2.846802000
H	 2.160585000	 1.725776000	 -1.302890000
