10
0  1  0  1  0  1   5   5 -1.10624 -1.00119 -1.05116 -1.15621 -1.09288 -1.12903 -0.24299 -0.24395 -0.24287 -1.04940 -0.46895  0.39771 -0.11754 -0.86062
Br	 -3.181925827	 1.392442316	 0.000153271
C	 -2.827807827	 -0.503197684	 0.000112271
H	 -3.274637827	 -0.925397684	 -0.891229729
H	 -3.274440827	 -0.925399684	 0.891552271
H	 -1.753943827	 -0.641751684	 -0.000004729
Br	 1.149213000	 -2.634540000	 0.000186000
C	 1.790115000	 -0.815721000	 0.000151000
H	 0.929295000	 -0.158932000	 0.000170000
H	 2.388048000	 -0.673373000	 -0.891260000
H	 2.388100000	 -0.673357000	 0.891524000
