10
0  1  0  1  0  1   5   5 65.80117 68.80642 66.24027 63.23502 65.95879 64.32884 83.78122 83.77194 83.64092 58.20164 -59.78707 168.52773 -30.03562 -20.50340
Br	 -0.561630166	 2.175831853	 0.000193951
C	 -1.202775166	 0.357099853	 0.000154951
H	 -1.800851166	 0.214881853	 -0.891181049
H	 -1.800662166	 0.214776853	 0.891600951
H	 -0.342059166	 -0.299823147	 0.000026951
Br	 2.177492000	 -0.607408000	 0.000145000
C	 1.823120000	 1.288186000	 0.000114000
H	 0.749234000	 1.426572000	 0.000143000
H	 2.269763000	 1.710430000	 -0.891301000
H	 2.269817000	 1.710469000	 0.891483000
