10
0  1  0  1  0  1   5   5 -2.16316 -1.97196 -2.08923 -2.28043 -2.15236 -2.22540 -0.91478 -0.91659 -0.91421 -2.03768 -1.32278  0.92602 -0.27604 -1.36487
Br	 -2.455720571	 0.646617999	 -0.162256422
C	 -2.101602571	 -1.249022001	 -0.162297422
H	 -2.548432571	 -1.671222001	 -1.053639422
H	 -2.548235571	 -1.671224001	 0.729142578
H	 -1.027738571	 -1.387576001	 -0.162414422
Br	 1.596274000	 -0.525706000	 2.190634000
C	 1.323449000	 1.358425000	 1.883269000
H	 0.393191000	 1.476621000	 1.341947000
H	 2.160575000	 1.725811000	 1.303055000
H	 1.277900000	 1.849870000	 2.847015000
