10
0  1  0  1  0  1   5   5 -2.56447 -2.28834 -2.43448 -2.71061 -2.53138 -2.63482 -0.82277 -0.82914 -0.82870 -2.36637 -1.86156  1.81763 -0.45438 -1.86806
Br	 -2.358344780	 0.632939592	 0.000161616
C	 -2.004226780	 -1.262700408	 0.000120616
H	 -2.451056780	 -1.684900408	 -0.891221384
H	 -2.450859780	 -1.684902408	 0.891560616
H	 -0.930362780	 -1.401254408	 0.000003616
Br	 2.177492000	 -0.607408000	 0.000145000
C	 1.823120000	 1.288186000	 0.000114000
H	 0.749234000	 1.426572000	 0.000143000
H	 2.269763000	 1.710430000	 -0.891301000
H	 2.269817000	 1.710469000	 0.891483000
