10
0  1  0  1  0  1   5   5 -2.67995 -2.31499 -2.53576 -2.90072 -2.65044 -2.79402 -0.28497 -0.29175 -0.28911 -2.35821 -2.43589  3.25042 -0.67209 -2.50066
Br	 -1.515438195	 0.514555930	 -2.143388617
C	 -1.242836195	 -1.369637070	 -1.836218617
H	 -1.197423195	 -1.860996070	 -2.800014617
H	 -2.079972195	 -1.736966070	 -1.255982617
H	 -0.312558195	 -1.488029070	 -1.294970617
Br	 2.177492000	 -0.607408000	 0.000145000
C	 1.823120000	 1.288186000	 0.000114000
H	 0.749234000	 1.426572000	 0.000143000
H	 2.269763000	 1.710430000	 -0.891301000
H	 2.269817000	 1.710469000	 0.891483000
