10
0  1  0  1  0  1   5   5 -2.16315 -1.97197 -2.08925 -2.28043 -2.15235 -2.22540 -0.91487 -0.91668 -0.91430 -2.03769 -1.32264  0.92569 -0.27597 -1.36477
Br	 -1.874493587	 0.564907354	 2.353045316
C	 -1.601892587	 -1.319272646	 2.045793316
H	 -2.439142587	 -1.686624646	 1.465738316
H	 -1.556249587	 -1.810641646	 3.009574316
H	 -0.671727587	 -1.437624646	 1.504344316
Br	 2.177492000	 -0.607408000	 0.000145000
C	 1.823120000	 1.288186000	 0.000114000
H	 0.749234000	 1.426572000	 0.000143000
H	 2.269763000	 1.710430000	 -0.891301000
H	 2.269817000	 1.710469000	 0.891483000
