10
0  1  0  1  0  1   5   5 -1.61731 -0.87751 -1.32693 -2.06673 -1.51438 -1.83322  3.10132  3.08919  3.09035 -0.76033 -5.86627 11.83832 -1.96984 -4.76254
Br	 -1.726891852	 0.544219829	 0.000159470
C	 -1.372773852	 -1.351420171	 0.000118470
H	 -1.819603852	 -1.773620171	 -0.891223530
H	 -1.819406852	 -1.773622171	 0.891558470
H	 -0.298909852	 -1.489974171	 0.000001470
Br	 2.177492000	 -0.607408000	 0.000145000
C	 1.823120000	 1.288186000	 0.000114000
H	 0.749234000	 1.426572000	 0.000143000
H	 2.269763000	 1.710430000	 -0.891301000
H	 2.269817000	 1.710469000	 0.891483000
