10
0  1  0  1  0  1   5   5 -1.68409 -0.97491 -1.43941 -2.14859 -1.60837 -1.91964  2.92298  2.91299  2.91545 -0.88073 -5.46324 10.93718 -1.73408 -4.62059
Br	 -1.156378885	 0.464020535	 1.934366829
C	 -0.883777885	 -1.420159465	 1.627114829
H	 -1.721027885	 -1.787511465	 1.047059829
H	 -0.838134885	 -1.911528465	 2.590895829
H	 0.046387115	 -1.538511465	 1.085665829
Br	 2.177492000	 -0.607408000	 0.000145000
C	 1.823120000	 1.288186000	 0.000114000
H	 0.749234000	 1.426572000	 0.000143000
H	 2.269763000	 1.710430000	 -0.891301000
H	 2.269817000	 1.710469000	 0.891483000
