10
0  1  0  1  0  1   5   5 -0.52392  0.00183 -0.30343 -0.82918 -0.44410 -0.66664  3.29600  3.28833  3.28852  0.05580 -3.88359  9.08352 -1.41418 -3.72995
Br	 -1.357638893	 2.797692061	 0.000207573
C	 -1.998783893	 0.978960061	 0.000168573
H	 -2.596859893	 0.836742061	 -0.891167427
H	 -2.596670893	 0.836637061	 0.891614573
H	 -1.138067893	 0.322037061	 0.000040573
Br	 2.177492000	 -0.607408000	 0.000145000
C	 1.823120000	 1.288186000	 0.000114000
H	 0.749234000	 1.426572000	 0.000143000
H	 2.269763000	 1.710430000	 -0.891301000
H	 2.269817000	 1.710469000	 0.891483000
