10
0  1  0  1  0  1   5   5 -1.44782 -1.10047 -1.28176 -1.62912 -1.39587 -1.53059  1.16557  1.15844  1.15872 -1.11316 -2.05885  4.21129 -0.71142 -2.55418
Br	 -1.556641075	 2.953157113	 0.000210978
C	 -2.197786075	 1.134425113	 0.000171978
H	 -2.795862075	 0.992207113	 -0.891164022
H	 -2.795673075	 0.992102113	 0.891617978
H	 -1.337070075	 0.477502113	 0.000043978
Br	 2.177492000	 -0.607408000	 0.000145000
C	 1.823120000	 1.288186000	 0.000114000
H	 0.749234000	 1.426572000	 0.000143000
H	 2.269763000	 1.710430000	 -0.891301000
H	 2.269817000	 1.710469000	 0.891483000
