10
0  1  0  1  0  1   5   5 20.63951 22.66912 20.88634 18.85673 20.69627 19.60562 33.37676 33.36406 33.29965 21.98908 -24.91210 67.92168 -9.32820 -11.69230
Br	 -1.069082441	 1.055214280	 0.000146685
C	 -0.714964441	 -0.840425720	 0.000105685
H	 -1.161794441	 -1.262625720	 -0.891236315
H	 -1.161597441	 -1.262627720	 0.891545685
H	 0.358899559	 -0.978979720	 -0.000011315
Br	 2.054442000	 1.662279000	 0.000106000
C	 0.799750000	 3.126726000	 0.000088000
H	 -0.199456000	 2.709628000	 0.000126000
H	 0.975424000	 3.715722000	 -0.891328000
H	 0.975468000	 3.715781000	 0.891456000
