10
0  1  0  1  0  1   5   5 -2.54878 -2.04239 -2.35900 -2.86539 -2.50141 -2.71059  0.77317  0.76463  0.76758 -2.03362 -3.56214  5.99996 -1.07371 -3.39774
Br	 -1.335909428	 0.489329733	 -2.038720210
C	 -1.063307428	 -1.394863267	 -1.731550210
H	 -1.017894428	 -1.886222267	 -2.695346210
H	 -1.900443428	 -1.762192267	 -1.151314210
H	 -0.133029428	 -1.513255267	 -1.190302210
Br	 2.177492000	 -0.607408000	 0.000145000
C	 1.823120000	 1.288186000	 0.000114000
H	 0.749234000	 1.426572000	 0.000143000
H	 2.269763000	 1.710430000	 -0.891301000
H	 2.269817000	 1.710469000	 0.891483000
