10
0  1  0  1  0  1   5   5 -2.67968 -2.31469 -2.53546 -2.90045 -2.65015 -2.79374 -0.28454 -0.29133 -0.28868 -2.35787 -2.43620  3.25140 -0.67228 -2.50079
Br	 -2.096661952	 0.596173758	 0.047080381
C	 -1.742543952	 -1.299466242	 0.047039381
H	 -2.189373952	 -1.721666242	 -0.844302619
H	 -2.189176952	 -1.721668242	 0.938479381
H	 -0.668679952	 -1.438020242	 0.046922381
Br	 1.596274000	 -0.525706000	 2.190634000
C	 1.323449000	 1.358425000	 1.883269000
H	 0.393191000	 1.476621000	 1.341947000
H	 2.160575000	 1.725811000	 1.303055000
H	 1.277900000	 1.849870000	 2.847015000
