10
0  1  0  1  0  1   5   5 -1.29556 -1.17583 -1.25549 -1.37522 -1.29162 -1.34000 -0.50832 -0.51051 -0.51062 -1.19147 -0.64524  0.46580 -0.14692 -0.86511
Br	 -2.580776074	 -1.875002245	 0.000107603
C	 -1.326280074	 -3.339616245	 0.000075603
H	 -1.502137074	 -3.928664245	 -0.891270397
H	 -1.501985074	 -3.928573245	 0.891511603
H	 -0.327010074	 -2.922675245	 -0.000029397
Br	 2.177492000	 -0.607408000	 0.000145000
C	 1.823120000	 1.288186000	 0.000114000
H	 0.749234000	 1.426572000	 0.000143000
H	 2.269763000	 1.710430000	 -0.891301000
H	 2.269817000	 1.710469000	 0.891483000
