10
0  1  0  1  0  1   5   5 -0.52557  0.00011 -0.30507 -0.83076 -0.44577 -0.66826  3.29380  3.28612  3.28632  0.05402 -3.88237  9.07964 -1.41380 -3.72946
Br	 -2.385916936	 0.770582071	 0.000159394
C	 -2.031798936	 -1.125057929	 0.000118394
H	 -2.478628936	 -1.547257929	 -0.891223606
H	 -2.478431936	 -1.547259929	 0.891558394
H	 -0.957934936	 -1.263611929	 0.000001394
Br	 1.149213000	 -2.634540000	 0.000186000
C	 1.790115000	 -0.815721000	 0.000151000
H	 0.929295000	 -0.158932000	 0.000170000
H	 2.388048000	 -0.673373000	 -0.891260000
H	 2.388100000	 -0.673357000	 0.891524000
