10
0  1  0  1  0  1   5   5  3.10578  4.08386  3.31937  2.34129  3.18188  2.69087  9.49930  9.49183  9.47987  4.45622 -8.01543 21.40358 -3.01252 -5.91940
Br	 -1.354725759	 -1.379590139	 0.000117839
C	 -0.100229759	 -2.844204139	 0.000085839
H	 -0.276086759	 -3.433252139	 -0.891260161
H	 -0.275934759	 -3.433161139	 0.891521839
H	 0.899040241	 -2.427263139	 -0.000019161
Br	 2.177492000	 -0.607408000	 0.000145000
C	 1.823120000	 1.288186000	 0.000114000
H	 0.749234000	 1.426572000	 0.000143000
H	 2.269763000	 1.710430000	 -0.891301000
H	 2.269817000	 1.710469000	 0.891483000
