10
0  1  0  1  0  1   5   5 -2.77038 -2.38944 -2.59565 -2.97660 -2.72407 -2.86981 -0.34370 -0.35323 -0.35262 -2.44312 -2.60523  3.43556 -0.72515 -2.54831
Br	 -2.147860471	 0.603366338	 0.000160901
C	 -1.793742471	 -1.292273662	 0.000119901
H	 -2.240572471	 -1.714473662	 -0.891222099
H	 -2.240375471	 -1.714475662	 0.891559901
H	 -0.719878471	 -1.430827662	 0.000002901
Br	 2.177492000	 -0.607408000	 0.000145000
C	 1.823120000	 1.288186000	 0.000114000
H	 0.749234000	 1.426572000	 0.000143000
H	 2.269763000	 1.710430000	 -0.891301000
H	 2.269817000	 1.710469000	 0.891483000
