10
0  1  0  1  0  1   5   5 -2.48105 -2.21678 -2.37519 -2.63947 -2.46268 -2.56389 -0.75293 -0.75732 -0.75495 -2.28106 -1.75216  1.74335 -0.42761 -1.84466
Br	 -2.276190600	 0.621397907	 0.057910694
C	 -1.922072600	 -1.274242093	 0.057869694
H	 -2.368902600	 -1.696442093	 -0.833472306
H	 -2.368705600	 -1.696444093	 0.949309694
H	 -0.848208600	 -1.412796093	 0.057752694
Br	 1.596249000	 -0.525783000	 -2.190340000
C	 1.323427000	 1.358359000	 -1.883038000
H	 0.393200000	 1.476571000	 -1.341665000
H	 1.277816000	 1.849764000	 -2.846802000
H	 2.160585000	 1.725776000	 -1.302890000
