10
0  1  0  1  0  1   5   5 -1.29564 -1.17586 -1.25553 -1.37531 -1.29167 -1.34007 -0.50818 -0.51036 -0.51048 -1.19151 -0.64535  0.46617 -0.14701 -0.86532
Br	 -2.703816016	 0.394664731	 0.000167804
C	 -2.349698016	 -1.500975269	 0.000126804
H	 -2.796528016	 -1.923175269	 -0.891215196
H	 -2.796331016	 -1.923177269	 0.891566804
H	 -1.275834016	 -1.639529269	 0.000009804
Br	 2.054442000	 1.662279000	 0.000106000
C	 0.799750000	 3.126726000	 0.000088000
H	 -0.199456000	 2.709628000	 0.000126000
H	 0.975424000	 3.715722000	 -0.891328000
H	 0.975468000	 3.715781000	 0.891456000
