10
0  1  0  1  0  1   5   5 -1.20534 -0.74132 -1.07041 -1.53443 -1.17199 -1.38131  1.96858  1.96314  1.96364 -0.55501 -2.74802  6.27336 -1.01107 -3.06928
Br	 -1.886449229	 0.724939505	 0.000157245
C	 -1.532331229	 -1.170700495	 0.000116245
H	 -1.979161229	 -1.592900495	 -0.891225755
H	 -1.978964229	 -1.592902495	 0.891556245
H	 -0.458467229	 -1.309254495	 -0.000000755
Br	 2.054442000	 1.662279000	 0.000106000
C	 0.799750000	 3.126726000	 0.000088000
H	 -0.199456000	 2.709628000	 0.000126000
H	 0.975424000	 3.715722000	 -0.891328000
H	 0.975468000	 3.715781000	 0.891456000
