10
0  1  0  1  0  1   5   5 -1.54736 -1.31376 -1.42547 -1.65907 -1.51335 -1.59736  0.24913  0.24325  0.24381 -1.36330 -1.16193  1.93373 -0.37264 -1.76247
Br	 -2.783921382	 1.081512193	 0.000156333
C	 -2.429803382	 -0.814127807	 0.000115333
H	 -2.876633382	 -1.236327807	 -0.891226667
H	 -2.876436382	 -1.236329807	 0.891555333
H	 -1.355939382	 -0.952681807	 -0.000001667
Br	 1.149213000	 -2.634540000	 0.000186000
C	 1.790115000	 -0.815721000	 0.000151000
H	 0.929295000	 -0.158932000	 0.000170000
H	 2.388048000	 -0.673373000	 -0.891260000
H	 2.388100000	 -0.673357000	 0.891524000
