10
0  1  0  1  0  1   5   5 -2.22745 -2.02805 -2.13542 -2.33482 -2.20373 -2.27922 -0.97571 -0.97841 -0.97771 -2.10636 -1.39471  0.95225 -0.28986 -1.37404
Br	 -2.568829089	 0.662512846	 0.000162331
C	 -2.214711089	 -1.233127154	 0.000121331
H	 -2.661541089	 -1.655327154	 -0.891220669
H	 -2.661344089	 -1.655329154	 0.891561331
H	 -1.140847089	 -1.371681154	 0.000004331
Br	 2.177492000	 -0.607408000	 0.000145000
C	 1.823120000	 1.288186000	 0.000114000
H	 0.749234000	 1.426572000	 0.000143000
H	 2.269763000	 1.710430000	 -0.891301000
H	 2.269817000	 1.710469000	 0.891483000
