10
0  1  0  1  0  1   5   5 -1.64051 -1.31627 -1.53734 -1.86158 -1.62200 -1.76014  0.59253  0.58743  0.58830 -1.22998 -1.72497  3.31989 -0.60172 -2.22318
Br	 -1.967750916	 -1.627296192	 0.000112721
C	 -0.713254916	 -3.091910192	 0.000080721
H	 -0.889111916	 -3.680958192	 -0.891265279
H	 -0.888959916	 -3.680867192	 0.891516721
H	 0.286015084	 -2.674969192	 -0.000024279
Br	 2.177492000	 -0.607408000	 0.000145000
C	 1.823120000	 1.288186000	 0.000114000
H	 0.749234000	 1.426572000	 0.000143000
H	 2.269763000	 1.710430000	 -0.891301000
H	 2.269817000	 1.710469000	 0.891483000
