10
0  1  0  1  0  1   5   5 10.00008 11.28217 10.37679  9.09469 10.17491  9.54239 18.26146 18.25215 18.23314 10.74776 -15.37958 40.64039 -6.20809 -8.30496
Br	 -0.959634530	 2.486761957	 0.000200762
C	 -1.600779530	 0.668029957	 0.000161762
H	 -2.198855530	 0.525811957	 -0.891174238
H	 -2.198666530	 0.525706957	 0.891607762
H	 -0.740063530	 0.011106957	 0.000033762
Br	 2.177492000	 -0.607408000	 0.000145000
C	 1.823120000	 1.288186000	 0.000114000
H	 0.749234000	 1.426572000	 0.000143000
H	 2.269763000	 1.710430000	 -0.891301000
H	 2.269817000	 1.710469000	 0.891483000
