10
0  1  0  1  0  1   5   5  9.99187 11.27372 10.36857  9.08673 10.16668  9.53432 18.25182 18.24251 18.22352 10.73994 -15.37341 40.62287 -6.20601 -8.30350
Br	 -1.987912491	 0.459651948	 0.000162456
C	 -1.633794491	 -1.435988052	 0.000121456
H	 -2.080624491	 -1.858188052	 -0.891220544
H	 -2.080427491	 -1.858190052	 0.891561456
H	 -0.559930491	 -1.574542052	 0.000004456
Br	 1.149213000	 -2.634540000	 0.000186000
C	 1.790115000	 -0.815721000	 0.000151000
H	 0.929295000	 -0.158932000	 0.000170000
H	 2.388048000	 -0.673373000	 -0.891260000
H	 2.388100000	 -0.673357000	 0.891524000
