10
0  1  0  1  0  1   5   5 -1.35877 -1.20151 -1.27401 -1.43127 -1.33670 -1.39103 -0.11716 -0.12057 -0.11974 -1.25706 -0.70794  0.88147 -0.20468 -1.22591
Br	 -1.954645439	 3.264087217	 0.000217789
C	 -2.595790439	 1.445355217	 0.000178789
H	 -3.193866439	 1.303137217	 -0.891157211
H	 -3.193677439	 1.303032217	 0.891624789
H	 -1.735074439	 0.788432217	 0.000050789
Br	 2.177492000	 -0.607408000	 0.000145000
C	 1.823120000	 1.288186000	 0.000114000
H	 0.749234000	 1.426572000	 0.000143000
H	 2.269763000	 1.710430000	 -0.891301000
H	 2.269817000	 1.710469000	 0.891483000
