10
0  1  0  1  0  1   5   5 -1.10626 -1.00117 -1.05114 -1.15622 -1.09286 -1.12904 -0.24290 -0.24386 -0.24278 -1.04938 -0.46898  0.39786 -0.11756 -0.86069
Br	 -2.153647620	 3.419552269	 0.000221195
C	 -2.794792620	 1.600820269	 0.000182195
H	 -3.392868620	 1.458602269	 -0.891153805
H	 -3.392679620	 1.458497269	 0.891628195
H	 -1.934076620	 0.943897269	 0.000054195
Br	 2.177492000	 -0.607408000	 0.000145000
C	 1.823120000	 1.288186000	 0.000114000
H	 0.749234000	 1.426572000	 0.000143000
H	 2.269763000	 1.710430000	 -0.891301000
H	 2.269817000	 1.710469000	 0.891483000
