10
0  1  0  1  0  1   5   5 -1.68266 -0.97337 -1.43793 -2.14723 -1.60692 -1.91825  2.92510  2.91512  2.91758 -0.87914 -5.46501 10.94214 -1.73496 -4.62131
Br	 -1.737606268	 0.545720515	 -0.256098171
C	 -1.383488268	 -1.349919485	 -0.256139171
H	 -1.830318268	 -1.772119485	 -1.147481171
H	 -1.830121268	 -1.772121485	 0.635300829
H	 -0.309624268	 -1.488473485	 -0.256256171
Br	 1.596249000	 -0.525783000	 -2.190340000
C	 1.323427000	 1.358359000	 -1.883038000
H	 0.393200000	 1.476571000	 -1.341665000
H	 1.277816000	 1.849764000	 -2.846802000
H	 2.160585000	 1.725776000	 -1.302890000
