10
0  1  0  1  0  1   5   5 33.30537 36.18318 33.91459 31.03678 33.63687 32.10116 49.96564 49.94364 49.86652 34.07171 -39.75643 101.92913 -11.88332 -16.21767
Br	 -0.438264183	 0.363133717	 1.515688343
C	 -0.165663183	 -1.521046283	 1.208436343
H	 -1.002913183	 -1.888398283	 0.628381343
H	 -0.120020183	 -2.012415283	 2.172217343
H	 0.764501817	 -1.639398283	 0.666987343
Br	 2.177492000	 -0.607408000	 0.000145000
C	 1.823120000	 1.288186000	 0.000114000
H	 0.749234000	 1.426572000	 0.000143000
H	 2.269763000	 1.710430000	 -0.891301000
H	 2.269817000	 1.710469000	 0.891483000
