10
0  1  0  1  0  1   5   5 -2.60778 -2.08008 -2.38067 -2.90837 -2.54001 -2.75253  0.77602  0.76475  0.76580 -2.06973 -3.82289  6.42061 -1.18468 -3.48277
Br	 -1.937376161	 0.573793083	 0.000160186
C	 -1.583258161	 -1.321846917	 0.000119186
H	 -2.030088161	 -1.744046917	 -0.891222814
H	 -2.029891161	 -1.744048917	 0.891559186
H	 -0.509394161	 -1.460400917	 0.000002186
Br	 2.177492000	 -0.607408000	 0.000145000
C	 1.823120000	 1.288186000	 0.000114000
H	 0.749234000	 1.426572000	 0.000143000
H	 2.269763000	 1.710430000	 -0.891301000
H	 2.269817000	 1.710469000	 0.891483000
