10
0  1  0  1  0  1   5   5 -1.65825 -1.42801 -1.58054 -1.81079 -1.64821 -1.74200 -0.08466 -0.08928 -0.08882 -1.40312 -1.15859  1.73935 -0.36777 -1.61611
Br	 -2.172092635	 -1.709864876	 0.000111015
C	 -0.917596635	 -3.174478876	 0.000079015
H	 -1.093453635	 -3.763526876	 -0.891266985
H	 -1.093301635	 -3.763435876	 0.891515015
H	 0.081673365	 -2.757537876	 -0.000025985
Br	 2.177492000	 -0.607408000	 0.000145000
C	 1.823120000	 1.288186000	 0.000114000
H	 0.749234000	 1.426572000	 0.000143000
H	 2.269763000	 1.710430000	 -0.891301000
H	 2.269817000	 1.710469000	 0.891483000
