10
0  1  0  1  0  1   5   5 -2.16328 -1.97206 -2.08933 -2.28056 -2.15247 -2.22552 -0.91481 -0.91662 -0.91425 -2.03779 -1.32289  0.92613 -0.27607 -1.36496
Br	 -2.455718711	 0.646623705	 0.162580316
C	 -2.101600711	 -1.249016295	 0.162539316
H	 -2.548430711	 -1.671216295	 -0.728802684
H	 -2.548233711	 -1.671218295	 1.053979316
H	 -1.027736711	 -1.387570295	 0.162422316
Br	 1.596249000	 -0.525783000	 -2.190340000
C	 1.323427000	 1.358359000	 -1.883038000
H	 0.393200000	 1.476571000	 -1.341665000
H	 1.277816000	 1.849764000	 -2.846802000
H	 2.160585000	 1.725776000	 -1.302890000
