10
0  1  0  1  0  1   5   5 33.31863 36.19671 33.92781 31.04973 33.65009 32.11421 49.98038 49.95839 49.88123 34.08240 -39.76502 101.95694 -11.88962 -16.21990
Br	 -1.019486093	 0.444841035	 0.675090790
C	 -0.665368093	 -1.450798965	 0.675049790
H	 -1.112198093	 -1.872998965	 -0.216292210
H	 -1.112001093	 -1.873000965	 1.566489790
H	 0.408495907	 -1.589352965	 0.674932790
Br	 1.596274000	 -0.525706000	 2.190634000
C	 1.323449000	 1.358425000	 1.883269000
H	 0.393191000	 1.476621000	 1.341947000
H	 2.160575000	 1.725811000	 1.303055000
H	 1.277900000	 1.849870000	 2.847015000
