10
0  1  0  1  0  1   5   5  5.68868  7.11662  6.08298  4.65504  5.86512  5.16022 14.50779 14.49328 14.48066  7.22002 -14.32110 34.68128 -4.55297 -8.58720
Br	 -0.797321534	 0.413577126	 1.725027586
C	 -0.524720534	 -1.470602874	 1.417775586
H	 -1.361970534	 -1.837954874	 0.837720586
H	 -0.479077534	 -1.961971874	 2.381556586
H	 0.405444466	 -1.588954874	 0.876326586
Br	 2.177492000	 -0.607408000	 0.000145000
C	 1.823120000	 1.288186000	 0.000114000
H	 0.749234000	 1.426572000	 0.000143000
H	 2.269763000	 1.710430000	 -0.891301000
H	 2.269817000	 1.710469000	 0.891483000
