10
0  1  0  1  0  1   5   5 -1.20342 -1.02451 -1.13582 -1.31472 -1.17938 -1.25897  0.16398  0.16055  0.15736 -0.99833 -0.62712  1.13213 -0.17633 -1.32700
Br	 1.926320000	 0.000000000	 -0.000000000
C	 0.000000000	 0.000000000	 0.000000000
H	 -0.338190000	 1.028770000	 0.000000000
H	 -0.338190000	 -0.514390000	 0.890940000
H	 -0.338190000	 -0.514390000	 -0.890940000
Br	 -3.206291092	 -1.851158825	 0.000000000
C	 -4.874711092	 -2.814418825	 0.000000000
H	 -5.680401092	 -2.091218825	 0.000000000
H	 -4.908551092	 -3.428128825	 0.891260000
H	 -4.908551092	 -3.428128825	 -0.891260000
