10
0  1  0  1  0  1   5   5 -1.30619 -1.06633 -1.22091 -1.46077 -1.26680 -1.37924  0.52811  0.52568  0.52497 -1.01382 -1.12253  2.15570 -0.28018 -1.76682
Br	 4.663570000	 0.000010000	 -2.692510000
C	 2.995330000	 0.000010000	 -1.729350000
H	 2.702450000	 1.028780000	 -1.560260000
H	 3.147920000	 -0.514380000	 -0.788680000
H	 2.256980000	 -0.514380000	 -2.331840000
Br	 -0.032605665	 -0.000000109	 0.018824839
C	 -1.959135665	 0.000009891	 0.018824839
H	 -2.295285665	 1.029159891	 0.018824839
H	 -2.295295665	 -0.514560109	 0.910084839
H	 -2.295295665	 -0.514560109	 -0.872435161
