10
0  1  0  1  0  1   5   5 -0.98399 -0.65358 -0.86563 -1.19604 -0.93740 -1.09036  1.56673  1.55886  1.55073 -0.51539 -1.60715  3.98241 -0.50127 -2.38937
Br	 1.926320000	 0.000000000	 -0.000000000
C	 0.000000000	 0.000000000	 0.000000000
H	 -0.338190000	 1.028770000	 0.000000000
H	 -0.338190000	 -0.514390000	 0.890940000
H	 -0.338190000	 -0.514390000	 -0.890940000
Br	 -2.885661983	 -1.666042942	 0.000000000
C	 -4.554081983	 -2.629302942	 0.000000000
H	 -5.359771983	 -1.906102942	 0.000000000
H	 -4.587921983	 -3.243012942	 0.891260000
H	 -4.587921983	 -3.243012942	 -0.891260000
