10
0  1  0  1  0  1   5   5  1.35364  2.00852  1.53884  0.88397  1.44290  1.11671  6.04901  6.03951  6.03225  2.37809 -4.86107 12.98995 -1.43736 -4.31343
Br	 4.663570000	 2.692520000	 0.000000000
C	 2.995330000	 1.729360000	 0.000000000
H	 2.188060000	 2.451210000	 0.000000000
H	 2.959640000	 1.114790000	 0.890940000
H	 2.959640000	 1.114790000	 -0.890940000
Br	 0.445441515	 0.257176584	 0.000000000
C	 -1.481088485	 0.257186584	 0.000000000
H	 -1.817238485	 1.286336584	 -0.000000000
H	 -1.817248485	 -0.257383416	 0.891260000
H	 -1.817248485	 -0.257383416	 -0.891260000
