10
0  1  0  1  0  1   5   5 -1.08716 -0.75649 -0.97541 -1.30608 -1.03556 -1.19297  1.41727  1.41293  1.41053 -0.63689 -1.74738  3.94248 -0.46673 -2.36526
Br	 4.663570000	 2.692520000	 0.000000000
C	 2.995330000	 1.729360000	 0.000000000
H	 2.188060000	 2.451210000	 0.000000000
H	 2.959640000	 1.114790000	 0.890940000
H	 2.959640000	 1.114790000	 -0.890940000
Br	 0.126705454	 0.073153657	 0.000000000
C	 -1.799824546	 0.073163657	 0.000000000
H	 -2.135974546	 1.102313657	 -0.000000000
H	 -2.135984546	 -0.441406343	 0.891260000
H	 -2.135984546	 -0.441406343	 -0.891260000
