10
0  1  0  1  0  1   5   5 -1.16999 -1.03979 -1.12303 -1.25324 -1.14820 -1.20849 -0.17776 -0.17846 -0.17744 -1.04508 -0.56814  0.63287 -0.10706 -1.00274
Br	 4.663570000	 2.692520000	 0.000000000
C	 2.995330000	 1.729360000	 0.000000000
H	 2.188060000	 2.451210000	 0.000000000
H	 2.959640000	 1.114790000	 0.890940000
H	 2.959640000	 1.114790000	 -0.890940000
Br	 -0.351398637	 -0.202880733	 0.000000000
C	 -2.277928637	 -0.202870733	 0.000000000
H	 -2.614078637	 0.826279267	 -0.000000000
H	 -2.614088637	 -0.717440733	 0.891260000
H	 -2.614088637	 -0.717440733	 -0.891260000
