10
0  1  0  1  0  1   5   5 -1.03260 -0.90572 -0.98464 -1.11152 -1.01662 -1.07212 -0.07406 -0.07672 -0.07822 -0.90503 -0.41940  0.57432 -0.10286 -0.95709
Br	 1.926320000	 0.000000000	 -0.000000000
C	 0.000000000	 0.000000000	 0.000000000
H	 -0.338190000	 1.028770000	 0.000000000
H	 -0.338190000	 -0.514390000	 0.890940000
H	 -0.338190000	 -0.514390000	 -0.890940000
Br	 -3.409850723	 -0.000011384	 -1.968673017
C	 -5.078270723	 -0.000001384	 -2.931943017
H	 -5.369390723	 1.029148616	 -3.100013017
H	 -5.815030723	 -0.514571384	 -2.328173017
H	 -4.923770723	 -0.514571384	 -3.871873017
