10
0  1  0  1  0  1   5   5 -1.17051 -1.04030 -1.12363 -1.25383 -1.14871 -1.20905 -0.17830 -0.17896 -0.17793 -1.04598 -0.57124  0.63352 -0.10538 -1.00288
Br	 4.663570000	 0.000010000	 2.692510000
C	 2.995330000	 0.000010000	 1.729350000
H	 2.702450000	 1.028780000	 1.560260000
H	 2.256980000	 -0.514380000	 2.331840000
H	 3.147920000	 -0.514380000	 0.788680000
Br	 -0.351335735	 -0.000001173	 -0.202843244
C	 -2.277865735	 0.000008827	 -0.202843244
H	 -2.614015735	 1.029158827	 -0.202843244
H	 -2.614025735	 -0.514561173	 0.688416756
H	 -2.614025735	 -0.514561173	 -1.094103244
