10
0  1  0  1  0  1   5   5 -0.94378 -0.84419 -0.90967 -1.00926 -0.93267 -0.97729 -0.20099 -0.20196 -0.20276 -0.84934 -0.33178  0.31438 -0.07343 -0.75851
Br	 1.926320000	 0.000000000	 -0.000000000
C	 0.000000000	 0.000000000	 0.000000000
H	 -0.338190000	 1.028770000	 0.000000000
H	 -0.338190000	 -0.514390000	 0.890940000
H	 -0.338190000	 -0.514390000	 -0.890940000
Br	 -3.526920201	 -2.036274707	 0.000000000
C	 -5.195340201	 -2.999534707	 0.000000000
H	 -6.001030201	 -2.276334707	 0.000000000
H	 -5.229180201	 -3.613244707	 0.891260000
H	 -5.229180201	 -3.613244707	 -0.891260000
