10
0  1  0  1  0  1   5   5 -1.02407 -0.92694 -0.99061 -1.08774 -1.00892 -1.05385 -0.29106 -0.29147 -0.28997 -0.94135 -0.45458  0.34123 -0.06449 -0.76350
Br	 4.663570000	 0.000010000	 -2.692510000
C	 2.995330000	 0.000010000	 -1.729350000
H	 2.702450000	 1.028780000	 -1.560260000
H	 3.147920000	 -0.514380000	 -0.788680000
H	 2.256980000	 -0.514380000	 -2.331840000
Br	 -0.510700770	 -0.000001705	 0.294852446
C	 -2.437230770	 0.000008295	 0.294852446
H	 -2.773380770	 1.029158295	 0.294852446
H	 -2.773390770	 -0.514561705	 1.186112446
H	 -2.773390770	 -0.514561705	 -0.596407554
