10
0  1  0  1  0  1   5   5 -1.02354 -0.92641 -0.99001 -1.08714 -1.00840 -1.05330 -0.29052 -0.29094 -0.28946 -0.94037 -0.45208  0.34085 -0.06574 -0.76339
Br	 4.663570000	 2.692520000	 0.000000000
C	 2.995330000	 1.729360000	 0.000000000
H	 2.188060000	 2.451210000	 0.000000000
H	 2.959640000	 1.114790000	 0.890940000
H	 2.959640000	 1.114790000	 -0.890940000
Br	 -0.510766667	 -0.294892197	 0.000000000
C	 -2.437296667	 -0.294882197	 0.000000000
H	 -2.773446667	 0.734267803	 -0.000000000
H	 -2.773456667	 -0.809452197	 0.891260000
H	 -2.773456667	 -0.809452197	 -0.891260000
