10
0  1  0  1  0  1   5   5 -1.02784 -0.92221 -0.99793 -1.10356 -1.01912 -1.06781 -0.21379 -0.21505 -0.21475 -0.92634 -0.37476  0.33585 -0.06192 -0.82550
Br	 5.385030000	 0.000010000	 -0.000000000
C	 3.458710000	 0.000010000	 0.000000000
H	 3.120520000	 1.028780000	 0.000000000
H	 3.120520000	 -0.514380000	 0.890940000
H	 3.120520000	 -0.514380000	 -0.890940000
Br	 -0.501744684	 -0.000001451	 0.000000000
C	 -2.428274684	 0.000008549	 0.000000000
H	 -2.764424684	 1.029158549	 -0.000000000
H	 -2.764434684	 -0.514561451	 0.891260000
H	 -2.764434684	 -0.514561451	 -0.891260000
