10
0  1  0  1  0  1   5   5 -1.08728 -0.75620 -0.97534 -1.30643 -1.03551 -1.19313  1.41709  1.41289  1.41052 -0.63741 -1.75339  3.94543 -0.46376 -2.36568
Br	 4.663570000	 0.000010000	 -2.692510000
C	 2.995330000	 0.000010000	 -1.729350000
H	 2.702450000	 1.028780000	 -1.560260000
H	 3.147920000	 -0.514380000	 -0.788680000
H	 2.256980000	 -0.514380000	 -2.331840000
Br	 0.126759370	 0.000000423	 -0.073184363
C	 -1.799770630	 0.000010423	 -0.073184363
H	 -2.135920630	 1.029160423	 -0.073184363
H	 -2.135930630	 -0.514559577	 0.818075637
H	 -2.135930630	 -0.514559577	 -0.964444363
