10
0  1  0  1  0  1   5   5 -1.31513 -1.06015 -1.23745 -1.49243 -1.28970 -1.40827  0.68704  0.68230  0.67905 -0.97488 -0.99894  2.19607 -0.27646 -1.89555
Br	 5.385030000	 0.000010000	 -0.000000000
C	 3.458710000	 0.000010000	 0.000000000
H	 3.120520000	 1.028780000	 0.000000000
H	 3.120520000	 -0.514380000	 0.890940000
H	 3.120520000	 -0.514380000	 -0.890940000
Br	 0.038317319	 0.000000111	 0.000000000
C	 -1.888212681	 0.000010111	 0.000000000
H	 -2.224362681	 1.029160111	 -0.000000000
H	 -2.224372681	 -0.514559889	 0.891260000
H	 -2.224372681	 -0.514559889	 -0.891260000
