10
0  1  0  1  0  1   5   5 -1.29947 -1.11139 -1.24157 -1.42965 -1.28078 -1.36757  0.17908  0.17616  0.17445 -1.07329 -0.66405  1.18147 -0.16431 -1.42640
Br	 5.385030000	 0.000010000	 -0.000000000
C	 3.458710000	 0.000010000	 0.000000000
H	 3.120520000	 1.028780000	 0.000000000
H	 3.120520000	 -0.514380000	 0.890940000
H	 3.120520000	 -0.514380000	 -0.890940000
Br	 -0.141703349	 -0.000000410	 0.000000000
C	 -2.068233349	 0.000009590	 0.000000000
H	 -2.404383349	 1.029159590	 -0.000000000
H	 -2.404393349	 -0.514560410	 0.891260000
H	 -2.404393349	 -0.514560410	 -0.891260000
