10
0  1  0  1  0  1   5   5  1.74427  2.34294  1.90866  1.31000  1.81514  1.51775  6.28798  6.27599  6.26329  2.70151 -4.56350 13.44549 -1.97658 -4.20390
Br	 1.926320000	 0.000000000	 -0.000000000
C	 0.000000000	 0.000000000	 0.000000000
H	 -0.338190000	 1.028770000	 0.000000000
H	 -0.338190000	 -0.514390000	 0.890940000
H	 -0.338190000	 -0.514390000	 -0.890940000
Br	 -2.630339849	 1.518618326	 0.000000000
C	 -4.298749849	 2.481888326	 0.000000000
H	 -4.075289849	 3.541238326	 0.000000000
H	 -4.847159849	 2.204338326	 0.891260000
H	 -4.847159849	 2.204338326	 -0.891260000
