10
0  1  0  1  0  1   5   5  1.62529  2.27308  1.81971  1.17193  1.71371  1.39333  6.42675  6.41339  6.39641  2.66463 -4.92183 13.62889 -1.63391 -4.40853
Br	 1.926320000	 0.000000000	 -0.000000000
C	 0.000000000	 0.000000000	 0.000000000
H	 -0.338190000	 1.028770000	 0.000000000
H	 -0.338190000	 -0.514390000	 0.890940000
H	 -0.338190000	 -0.514390000	 -0.890940000
Br	 -2.565032874	 -1.480927060	 0.000000000
C	 -4.233452874	 -2.444187060	 0.000000000
H	 -5.039142874	 -1.720987060	 0.000000000
H	 -4.267292874	 -3.057897060	 0.891260000
H	 -4.267292874	 -3.057897060	 -0.891260000
