10
0  1  0  1  0  1   5   5 -0.89676 -0.80170 -0.86285 -0.95792 -0.88596 -0.92791 -0.19184 -0.19324 -0.19407 -0.80910 -0.31775  0.29967 -0.06694 -0.72409
Br	 1.926320000	 0.000000000	 -0.000000000
C	 0.000000000	 0.000000000	 0.000000000
H	 -0.338190000	 1.028770000	 0.000000000
H	 -0.338190000	 -0.514390000	 0.890940000
H	 -0.338190000	 -0.514390000	 -0.890940000
Br	 -3.572224567	 -0.000011926	 2.062419351
C	 -5.240644567	 -0.000001926	 3.025689351
H	 -5.531764567	 1.029148074	 3.193759351
H	 -5.086144567	 -0.514571926	 3.965619351
H	 -5.977404567	 -0.514571926	 2.421919351
