10
0  1  0  1  0  1   5   5 -1.28714 -1.11131 -1.22315 -1.39897 -1.25740 -1.33912  0.05999  0.05866  0.05898 -1.09650 -0.76572  1.17030 -0.17462 -1.32645
Br	 4.663570000	 2.692520000	 0.000000000
C	 2.995330000	 1.729360000	 0.000000000
H	 2.188060000	 2.451210000	 0.000000000
H	 2.959640000	 1.114790000	 0.890940000
H	 2.959640000	 1.114790000	 -0.890940000
Br	 -0.192030606	 -0.110869270	 0.000000000
C	 -2.118560606	 -0.110859270	 0.000000000
H	 -2.454710606	 0.918290730	 -0.000000000
H	 -2.454720606	 -0.625429270	 0.891260000
H	 -2.454720606	 -0.625429270	 -0.891260000
