10
0  1  0  1  0  1   5   5 -1.08645 -0.86743 -1.00314 -1.22216 -1.05583 -1.15333  0.63507  0.62876  0.62558 -0.81268 -0.87025  2.01148 -0.30357 -1.65034
Br	 1.926320000	 0.000000000	 -0.000000000
C	 0.000000000	 0.000000000	 0.000000000
H	 -0.338190000	 1.028770000	 0.000000000
H	 -0.338190000	 -0.514390000	 0.890940000
H	 -0.338190000	 -0.514390000	 -0.890940000
Br	 -3.123528571	 1.803359263	 0.000000000
C	 -4.791938571	 2.766629263	 0.000000000
H	 -4.568478571	 3.825979263	 0.000000000
H	 -5.340348571	 2.489079263	 0.891260000
H	 -5.340348571	 2.489079263	 -0.891260000
