10
0  1  0  1  0  1   5   5 -0.98259 -0.86147 -0.93544 -1.05656 -0.96728 -1.01949 -0.06888 -0.07187 -0.07326 -0.86355 -0.40028  0.54710 -0.09367 -0.91670
Br	 1.926320000	 0.000000000	 -0.000000000
C	 0.000000000	 0.000000000	 0.000000000
H	 -0.338190000	 1.028770000	 0.000000000
H	 -0.338190000	 -0.514390000	 0.890940000
H	 -0.338190000	 -0.514390000	 -0.890940000
Br	 -3.452321052	 1.993186553	 0.000000000
C	 -5.120731052	 2.956456553	 0.000000000
H	 -4.897271052	 4.015806553	 0.000000000
H	 -5.669141052	 2.678906553	 0.891260000
H	 -5.669141052	 2.678906553	 -0.891260000
