10
0  1  0  1  0  1   5   5 -1.28759 -1.11172 -1.22367 -1.39954 -1.25785 -1.33962  0.05950  0.05823  0.05857 -1.09755 -0.76959  1.17145 -0.17242 -1.32698
Br	 4.663570000	 0.000010000	 -2.692510000
C	 2.995330000	 0.000010000	 -1.729350000
H	 2.702450000	 1.028780000	 -1.560260000
H	 3.147920000	 -0.514380000	 -0.788680000
H	 2.256980000	 -0.514380000	 -2.331840000
Br	 -0.191970700	 -0.000000641	 0.110834041
C	 -2.118500700	 0.000009359	 0.110834041
H	 -2.454650700	 1.029159359	 0.110834041
H	 -2.454660700	 -0.514560641	 1.002094041
H	 -2.454660700	 -0.514560641	 -0.780425959
