10
0  1  0  1  0  1   5   5 -1.14817 -0.91844 -1.06172 -1.29145 -1.11602 -1.21914  0.64312  0.63717  0.63313 -0.85749 -0.92218  2.07797 -0.30144 -1.71184
Br	 1.926320000	 0.000000000	 -0.000000000
C	 0.000000000	 0.000000000	 0.000000000
H	 -0.338190000	 1.028770000	 0.000000000
H	 -0.338190000	 -0.514390000	 0.890940000
H	 -0.338190000	 -0.514390000	 -0.890940000
Br	 -3.085103035	 -0.000010300	 -1.781180349
C	 -4.753523035	 -0.000000300	 -2.744450349
H	 -5.044643035	 1.029149700	 -2.912520349
H	 -5.490283035	 -0.514570300	 -2.140680349
H	 -4.599023035	 -0.514570300	 -3.684380349
