10
0  1  0  1  0  1   5   5 13.03860 14.31180 13.27978 12.00660 13.13898 12.46570 21.81373 21.79452 21.75036 14.33204 -15.62257 45.17408 -6.98770 -8.23178
Br	 1.926320000	 0.000000000	 -0.000000000
C	 0.000000000	 0.000000000	 0.000000000
H	 -0.338190000	 1.028770000	 0.000000000
H	 -0.338190000	 -0.514390000	 0.890940000
H	 -0.338190000	 -0.514390000	 -0.890940000
Br	 -2.301547368	 1.328791036	 0.000000000
C	 -3.969957368	 2.292061036	 0.000000000
H	 -3.746497368	 3.351411036	 0.000000000
H	 -4.518367368	 2.014511036	 0.891260000
H	 -4.518367368	 2.014511036	 -0.891260000
