10
0  1  0  1  0  1   5   5 -1.14026 -0.97011 -1.07478 -1.24492 -1.11729 -1.19214  0.16801  0.16378  0.16126 -0.94947 -0.59764  1.09538 -0.17208 -1.27513
Br	 1.926320000	 0.000000000	 -0.000000000
C	 0.000000000	 0.000000000	 0.000000000
H	 -0.338190000	 1.028770000	 0.000000000
H	 -0.338190000	 -0.514390000	 0.890940000
H	 -0.338190000	 -0.514390000	 -0.890940000
Br	 -3.247476879	 -0.000010842	 -1.874926683
C	 -4.915896879	 -0.000000842	 -2.838196683
H	 -5.207016879	 1.029149158	 -3.006266683
H	 -5.652656879	 -0.514570842	 -2.234426683
H	 -4.761396879	 -0.514570842	 -3.778126683
