10
0  1  0  1  0  1   5   5 -0.90948 -0.59522 -0.79802 -1.11228 -0.86533 -1.01075  1.54997  1.54221  1.53592 -0.46168 -1.52508  3.91616 -0.54053 -2.31222
Br	 1.926320000	 0.000000000	 -0.000000000
C	 0.000000000	 0.000000000	 0.000000000
H	 -0.338190000	 1.028770000	 0.000000000
H	 -0.338190000	 -0.514390000	 0.890940000
H	 -0.338190000	 -0.514390000	 -0.890940000
Br	 -2.922729191	 -0.000009758	 1.687434015
C	 -4.591149191	 0.000000242	 2.650704015
H	 -4.882269191	 1.029150242	 2.818774015
H	 -4.436649191	 -0.514569758	 3.590634015
H	 -5.327909191	 -0.514569758	 2.046934015
