10
0  1  0  1  0  1   5   5 -1.08354 -0.92128 -1.01978 -1.18205 -1.06171 -1.13215  0.16863  0.16392  0.16185 -0.90543 -0.56767  1.05162 -0.16411 -1.22527
Br	 1.926320000	 0.000000000	 -0.000000000
C	 0.000000000	 0.000000000	 0.000000000
H	 -0.338190000	 1.028770000	 0.000000000
H	 -0.338190000	 -0.514390000	 0.890940000
H	 -0.338190000	 -0.514390000	 -0.890940000
Br	 -3.287924811	 1.898272908	 0.000000000
C	 -4.956334811	 2.861542908	 0.000000000
H	 -4.732874811	 3.920892908	 0.000000000
H	 -5.504744811	 2.583992908	 0.891260000
H	 -5.504744811	 2.583992908	 -0.891260000
