15
0  1  0  1  0  1   3  12 -1.70814 -1.62397 -1.52108 -1.60525 -1.53645 -1.57330 -1.21444 -1.20733 -1.20041 -1.57659 -1.50076  0.97192 -0.23854 -0.80921
O	 2.602980000	 0.075360000	 1.504720000
H	 1.707900000	 0.057030000	 1.849390000
H	 2.460860000	 0.058940000	 0.556140000
F	 -0.171398567	 -0.004768107	 -0.098903366
C	 -1.521528567	 0.010301893	 -0.098783366
C	 -2.173958567	 1.232461893	 -0.098833366
C	 -2.201048567	 -1.196998107	 -0.098613366
C	 -3.567158567	 1.239311893	 -0.098713366
C	 -3.594058567	 -1.172788107	 -0.098493366
C	 -4.278378567	 0.041051893	 -0.098553366
H	 -1.598658567	 2.146611893	 -0.098963366
H	 -1.646238567	 -2.123718107	 -0.098573366
H	 -4.093448567	 2.183461893	 -0.098753366
H	 -4.141278567	 -2.104958107	 -0.098363366
H	 -5.358788567	 0.053091893	 -0.098453366
