15
0  1  0  1  0  1   3  12 -1.90292 -1.78020 -1.63923 -1.76195 -1.65956 -1.71662 -1.14694 -1.13856 -1.13351 -1.70592 -2.07044  1.85640 -0.35453 -1.13735
O	 2.566120000	 1.568570000	 0.001640000
H	 2.053220000	 1.251280000	 0.747660000
H	 2.056990000	 1.255660000	 -0.748800000
F	 -0.028247418	 -0.017228945	 0.000007835
C	 -1.378377418	 -0.002158945	 0.000127835
C	 -2.030807418	 1.220001055	 0.000077835
C	 -2.057897418	 -1.209458945	 0.000297835
C	 -3.424007418	 1.226851055	 0.000197835
C	 -3.450907418	 -1.185248945	 0.000417835
C	 -4.135227418	 0.028591055	 0.000357835
H	 -1.455507418	 2.134151055	 -0.000052165
H	 -1.503087418	 -2.136178945	 0.000337835
H	 -3.950297418	 2.171001055	 0.000157835
H	 -3.998127418	 -2.117418945	 0.000547835
H	 -5.215637418	 0.040631055	 0.000457835
