15
0  1  0  1  0  1   3  12 -1.75736 -1.64999 -1.52196 -1.62932 -1.53884 -1.58793 -1.10712 -1.09858 -1.09094 -1.58279 -1.81388  1.57430 -0.31960 -1.02362
O	 2.604620000	 0.075360000	 -1.501890000
H	 2.455570000	 0.057030000	 -0.554390000
H	 1.712060000	 0.058940000	 -1.853100000
F	 -0.058910492	 -0.001639265	 0.034030473
C	 -1.409040492	 0.013430735	 0.034150473
C	 -2.061470492	 1.235590735	 0.034100473
C	 -2.088560492	 -1.193869265	 0.034320473
C	 -3.454670492	 1.242440735	 0.034220473
C	 -3.481570492	 -1.169659265	 0.034440473
C	 -4.165890492	 0.044180735	 0.034380473
H	 -1.486170492	 2.149740735	 0.033970473
H	 -1.533750492	 -2.120589265	 0.034360473
H	 -3.980960492	 2.186590735	 0.034180473
H	 -4.028790492	 -2.101829265	 0.034570473
H	 -5.246300492	 0.056220735	 0.034480473
