15
0  1  0  1  0  1   3  12  5.35485  5.94482  6.12747  5.53750  6.07813  5.74584  8.08726  8.08123  8.03446  6.61464 -10.12763 26.30270 -4.92745 -4.63298
O	 0.000000000	 0.000000000	 0.000000000
H	 -0.602830000	 -0.018330000	 0.746030000
H	 -0.597380000	 -0.016430000	 -0.750440000
F	 -2.104548533	 -0.060931213	 -1.130807122
C	 -3.273858533	 -0.045871213	 -1.805767122
C	 -3.838858533	 1.176288787	 -2.132037122
C	 -3.862428533	 -1.253171213	 -2.145387122
C	 -5.045458533	 1.183148787	 -2.828537122
C	 -5.068868533	 -1.228951213	 -2.841787122
C	 -5.661478533	 -0.015121213	 -3.183997122
H	 -3.340568533	 2.090438787	 -1.844497122
H	 -3.381968533	 -2.179881213	 -1.867947122
H	 -5.501228533	 2.127298787	 -3.091707122
H	 -5.542838533	 -2.161121213	 -3.115287122
H	 -6.597188533	 -0.003071213	 -3.724117122
