15
0  1  0  1  0  1   3  12 -1.82474 -1.75507 -1.66664 -1.73630 -1.67547 -1.70902 -1.45932 -1.45048 -1.44665 -1.71711 -1.48380  0.77596 -0.27946 -0.72981
O	 0.000000000	 0.000000000	 0.000000000
H	 -0.602830000	 -0.018330000	 0.746030000
H	 -0.597380000	 -0.016430000	 -0.750440000
F	 -2.858576014	 -0.082705602	 1.692446804
C	 -4.027766014	 -0.067645602	 2.367616804
C	 -4.592816014	 1.154514398	 2.693786804
C	 -4.616166014	 -1.274945602	 2.707526804
C	 -5.799306014	 1.161374398	 3.390486804
C	 -5.822486014	 -1.250725602	 3.404126804
C	 -6.415156014	 -0.036895602	 3.746246804
H	 -4.094656014	 2.068664398	 2.406026804
H	 -4.135666014	 -2.201655602	 2.430146804
H	 -6.255096014	 2.105524398	 3.653596804
H	 -6.296326014	 -2.182895602	 3.677846804
H	 -7.350766014	 -0.024845602	 4.286526804
