15
0  1  0  1  0  1   3  12 -0.80099 -0.53283 -0.29219 -0.56035 -0.32113 -0.46107  0.68734  0.69571  0.69181 -0.32661 -4.13233  6.95334 -0.92364 -2.22399
O	 4.872050000	 0.038280000	 0.001410000
H	 4.269220000	 0.019960000	 0.747440000
H	 4.274670000	 0.021860000	 -0.749030000
F	 2.216616462	 -0.028617635	 -0.000312449
C	 0.866486462	 -0.013547635	 -0.000192449
C	 0.214056462	 1.208612365	 -0.000242449
C	 0.186966462	 -1.220847635	 -0.000022449
C	 -1.179143538	 1.215472365	 -0.000122449
C	 -1.206043538	 -1.196627635	 0.000097551
C	 -1.890363538	 0.017202365	 0.000047551
H	 0.789356462	 2.122762365	 -0.000372449
H	 0.741776462	 -2.147567635	 0.000017551
H	 -1.705433538	 2.159622365	 -0.000162449
H	 -1.753263538	 -2.128807635	 0.000227551
H	 -2.970773538	 0.029242365	 0.000137551
