15
0  1  0  1  0  1   3  12 -1.76281 -1.67794 -1.56517 -1.65004 -1.57971 -1.61742 -1.28199 -1.27342 -1.26643 -1.61995 -1.56354  1.01891 -0.25312 -0.82220
O	 4.872050000	 0.038280000	 0.001410000
H	 4.269220000	 0.019960000	 0.747440000
H	 4.274670000	 0.021860000	 -0.749030000
F	 1.702784327	 -0.040999544	 -0.000191812
C	 0.352654327	 -0.025929544	 -0.000071812
C	 -0.299775673	 1.196230456	 -0.000121812
C	 -0.326865673	 -1.233229544	 0.000098188
C	 -1.692975673	 1.203090456	 -0.000001812
C	 -1.719875673	 -1.209009544	 0.000218188
C	 -2.404195673	 0.004820456	 0.000168188
H	 0.275524327	 2.110380456	 -0.000251812
H	 0.227944327	 -2.159949544	 0.000138188
H	 -2.219265673	 2.147240456	 -0.000041812
H	 -2.267095673	 -2.141189544	 0.000348188
H	 -3.484605673	 0.016860456	 0.000258188
