15
0  1  0  1  0  1   3  12 -1.52404 -1.46830 -1.39421 -1.44995 -1.40654 -1.42899 -1.25996 -1.25569 -1.24943 -1.44057 -1.15523  0.38421 -0.14513 -0.52443
O	 4.872050000	 0.038280000	 0.001410000
H	 4.269220000	 0.019960000	 0.747440000
H	 4.274670000	 0.021860000	 -0.749030000
F	 1.445868260	 -0.047190499	 -0.000131493
C	 0.095738260	 -0.032120499	 -0.000011493
C	 -0.556691740	 1.190039501	 -0.000061493
C	 -0.583781740	 -1.239420499	 0.000158507
C	 -1.949891740	 1.196899501	 0.000058507
C	 -1.976791740	 -1.215200499	 0.000278507
C	 -2.661111740	 -0.001370499	 0.000228507
H	 0.018608260	 2.104189501	 -0.000191493
H	 -0.028971740	 -2.166140499	 0.000198507
H	 -2.476181740	 2.141049501	 0.000018507
H	 -2.524011740	 -2.147380499	 0.000408507
H	 -3.741521740	 0.010669501	 0.000318507
