15
0  1  0  1  0  1   3  12  2.65599  3.08030  3.39061  2.96629  3.35390  3.12161  5.04382  5.04953  5.03009  3.41615 -6.79799 15.05233 -1.46841 -3.36978
O	 0.000000000	 0.000000000	 0.000000000
H	 -0.602830000	 -0.018330000	 0.746030000
H	 -0.597380000	 -0.016430000	 -0.750440000
F	 -2.154844779	 1.091088248	 -0.001774688
C	 -3.316564779	 1.779198248	 -0.001654688
C	 -3.270504779	 3.163838248	 -0.001704688
C	 -4.508694779	 1.073408248	 -0.001484688
C	 -4.473624779	 3.866378248	 -0.001584688
C	 -5.702964779	 1.790888248	 -0.001364688
C	 -5.688694779	 3.184258248	 -0.001414688
H	 -2.315204779	 3.667868248	 -0.001834688
H	 -4.491574779	 -0.006561752	 -0.001444688
H	 -4.457324779	 4.947178248	 -0.001624688
H	 -6.642954779	 1.257208248	 -0.001234688
H	 -6.618324779	 3.734888248	 -0.001324688
