15
0  1  0  1  0  1   3  12 -0.38972 -0.04988  0.14362 -0.19622  0.10905 -0.08222  1.21994  1.22201  1.18697  0.25460 -4.94611  9.85082 -1.98517 -2.66494
O	 0.000000000	 0.000000000	 0.000000000
H	 -0.602830000	 -0.018330000	 0.746030000
H	 -0.597380000	 -0.016430000	 -0.750440000
F	 -2.319469038	 -0.067152815	 -1.292035997
C	 -3.488779038	 -0.052092815	 -1.966995997
C	 -4.053779038	 1.170067185	 -2.293265997
C	 -4.077349038	 -1.259392815	 -2.306615997
C	 -5.260379038	 1.176927185	 -2.989765997
C	 -5.283789038	 -1.235172815	 -3.003015997
C	 -5.876399038	 -0.021342815	 -3.345225997
H	 -3.555489038	 2.084217185	 -2.005725997
H	 -3.596889038	 -2.186102815	 -2.029175997
H	 -5.716149038	 2.121077185	 -3.252935997
H	 -5.757759038	 -2.167342815	 -3.276515997
H	 -6.812109038	 -0.009292815	 -3.885345997
