15
0  1  0  1  0  1   3  12 -0.80659 -0.52211 -0.27696 -0.56144 -0.31160 -0.45836  0.78678  0.79313  0.78762 -0.33444 -4.49492  7.43416 -0.93862 -2.33506
O	 2.641480000	 -1.438040000	 0.001640000
H	 2.110250000	 -1.152500000	 0.747660000
H	 2.115920000	 -1.153580000	 -0.748800000
F	 0.308037079	 -0.168085559	 -0.000083092
C	 -1.042092921	 -0.153015559	 0.000036908
C	 -1.694522921	 1.069144441	 -0.000013092
C	 -1.721612921	 -1.360315559	 0.000206908
C	 -3.087722921	 1.075994441	 0.000106908
C	 -3.114622921	 -1.336105559	 0.000326908
C	 -3.798942921	 -0.122265559	 0.000266908
H	 -1.119222921	 1.983294441	 -0.000143092
H	 -1.166802921	 -2.287035559	 0.000246908
H	 -3.614012921	 2.020144441	 0.000066908
H	 -3.661842921	 -2.268275559	 0.000456908
H	 -4.879352921	 -0.110225559	 0.000366908
