15
0  1  0  1  0  1   3  12 -1.82186 -1.75223 -1.66370 -1.73333 -1.67262 -1.70608 -1.45684 -1.44804 -1.44415 -1.71433 -1.48138  0.77333 -0.27785 -0.72842
O	 0.000000000	 0.000000000	 0.000000000
H	 -0.602830000	 -0.018330000	 0.746030000
H	 -0.597380000	 -0.016430000	 -0.750440000
F	 -2.856770300	 -0.082706820	 -1.695108183
C	 -4.026080300	 -0.067646820	 -2.370068183
C	 -4.591080300	 1.154513180	 -2.696338183
C	 -4.614650300	 -1.274946820	 -2.709688183
C	 -5.797680300	 1.161373180	 -3.392838183
C	 -5.821090300	 -1.250726820	 -3.406088183
C	 -6.413700300	 -0.036896820	 -3.748298183
H	 -4.092790300	 2.068663180	 -2.408798183
H	 -4.134190300	 -2.201656820	 -2.432248183
H	 -6.253450300	 2.105523180	 -3.656008183
H	 -6.295060300	 -2.182896820	 -3.679588183
H	 -7.349410300	 -0.024846820	 -4.288418183
