15
0  1  0  1  0  1   3  12 -1.69626 -1.55474 -1.39672 -1.53824 -1.41611 -1.48359 -0.83852 -0.82954 -0.82212 -1.46300 -2.27385  2.55518 -0.43624 -1.30809
O	 2.602980000	 0.075360000	 1.504720000
H	 1.707900000	 0.057030000	 1.849390000
H	 2.460860000	 0.058940000	 0.556140000
F	 0.054179289	 0.001507204	 0.031263471
C	 -1.295950711	 0.016577204	 0.031383471
C	 -1.948380711	 1.238737204	 0.031333471
C	 -1.975470711	 -1.190722796	 0.031553471
C	 -3.341580711	 1.245587204	 0.031453471
C	 -3.368480711	 -1.166512796	 0.031673471
C	 -4.052800711	 0.047327204	 0.031613471
H	 -1.373080711	 2.152887204	 0.031203471
H	 -1.420660711	 -2.117442796	 0.031593471
H	 -3.867870711	 2.189737204	 0.031413471
H	 -3.915700711	 -2.098682796	 0.031803471
H	 -5.133210711	 0.059367204	 0.031713471
