15
0  1  0  1  0  1   3  12 -0.80810 -0.51781 -0.27040 -0.56069 -0.30671 -0.45626  0.82797  0.83395  0.82751 -0.33900 -4.62014  7.61626 -0.94839 -2.38674
O	 2.566120000	 1.568570000	 0.001640000
H	 2.053220000	 1.251280000	 0.747660000
H	 2.056990000	 1.255660000	 -0.748800000
F	 0.300702964	 0.183407730	 -0.000083402
C	 -1.049427036	 0.198477730	 0.000036598
C	 -1.701857036	 1.420637730	 -0.000013402
C	 -1.728947036	 -1.008822270	 0.000206598
C	 -3.095057036	 1.427487730	 0.000106598
C	 -3.121957036	 -0.984612270	 0.000326598
C	 -3.806277036	 0.229227730	 0.000266598
H	 -1.126557036	 2.334787730	 -0.000143402
H	 -1.174137036	 -1.935542270	 0.000246598
H	 -3.621347036	 2.371637730	 0.000066598
H	 -3.669177036	 -1.916782270	 0.000456598
H	 -4.886687036	 0.241267730	 0.000366598
