15
0  1  0  1  0  1   3  12 -1.69528 -1.55388 -1.39585 -1.53726 -1.41522 -1.48261 -0.83919 -0.83020 -0.82271 -1.46214 -2.26975  2.54971 -0.43535 -1.30675
O	 2.604620000	 0.075360000	 -1.501890000
H	 2.455570000	 0.057030000	 -0.554390000
H	 1.712060000	 0.058940000	 -1.853100000
F	 0.053864534	 0.001498854	 -0.031115605
C	 -1.296265466	 0.016568854	 -0.030995605
C	 -1.948695466	 1.238728854	 -0.031045605
C	 -1.975785466	 -1.190731146	 -0.030825605
C	 -3.341895466	 1.245578854	 -0.030925605
C	 -3.368795466	 -1.166521146	 -0.030705605
C	 -4.053115466	 0.047318854	 -0.030765605
H	 -1.373395466	 2.152878854	 -0.031175605
H	 -1.420975466	 -2.117451146	 -0.030785605
H	 -3.868185466	 2.189728854	 -0.030965605
H	 -3.916015466	 -2.098691146	 -0.030575605
H	 -5.133525466	 0.059358854	 -0.030665605
