15
0  1  0  1  0  1   3  12 -0.77011 -0.50887 -0.27923 -0.54048 -0.30867 -0.44302  0.70595  0.71203  0.71124 -0.34013 -3.95938  6.65131 -0.85188 -2.18018
O	 2.604620000	 0.075360000	 -1.501890000
H	 2.455570000	 0.057030000	 -0.554390000
H	 1.712060000	 0.058940000	 -1.853100000
F	 0.279414586	 0.007775093	 -0.161407760
C	 -1.070715414	 0.022845093	 -0.161287760
C	 -1.723145414	 1.245005093	 -0.161337760
C	 -1.750235414	 -1.184454907	 -0.161117760
C	 -3.116345414	 1.251855093	 -0.161217760
C	 -3.143245414	 -1.160244907	 -0.160997760
C	 -3.827565414	 0.053595093	 -0.161057760
H	 -1.147845414	 2.159155093	 -0.161467760
H	 -1.195425414	 -2.111174907	 -0.161077760
H	 -3.642635414	 2.196005093	 -0.161257760
H	 -3.690465414	 -2.092414907	 -0.160867760
H	 -4.907975414	 0.065635093	 -0.160957760
