15
0  1  0  1  0  1   3  12  3.00661  3.51058  3.81478  3.31082  3.76949  3.48974  5.58800  5.58956  5.55502  3.95307 -8.20547 17.93112 -1.98203 -3.79054
O	 4.872050000	 0.038280000	 0.001410000
H	 4.269220000	 0.019960000	 0.747440000
H	 4.274670000	 0.021860000	 -0.749030000
F	 2.473532529	 -0.022426681	 -0.000372768
C	 1.123402529	 -0.007356681	 -0.000252768
C	 0.470972529	 1.214803319	 -0.000302768
C	 0.443882529	 -1.214656681	 -0.000082768
C	 -0.922227471	 1.221663319	 -0.000182768
C	 -0.949127471	 -1.190436681	 0.000037232
C	 -1.633447471	 0.023393319	 -0.000012768
H	 1.046272529	 2.128953319	 -0.000432768
H	 0.998692529	 -2.141376681	 -0.000042768
H	 -1.448517471	 2.165813319	 -0.000222768
H	 -1.496347471	 -2.122616681	 0.000167232
H	 -2.713857471	 0.035433319	 0.000077232
