15
0  1  0  1  0  1   3  12 -1.94975 -1.85435 -1.74616 -1.84156 -1.75900 -1.80618 -1.44766 -1.43932 -1.43802 -1.80541 -1.77363  1.29984 -0.39818 -0.93344
O	 0.000000000	 0.000000000	 0.000000000
H	 -0.602830000	 -0.018330000	 0.746030000
H	 -0.597380000	 -0.016430000	 -0.750440000
F	 -2.751029776	 -0.079594859	 1.611749099
C	 -3.920219776	 -0.064534859	 2.286919099
C	 -4.485269776	 1.157625141	 2.613089099
C	 -4.508619776	 -1.271834859	 2.626829099
C	 -5.691759776	 1.164485141	 3.309789099
C	 -5.714939776	 -1.247614859	 3.323429099
C	 -6.307609776	 -0.033784859	 3.665549099
H	 -3.987109776	 2.071775141	 2.325329099
H	 -4.028119776	 -2.198544859	 2.349449099
H	 -6.147549776	 2.108635141	 3.572899099
H	 -6.188779776	 -2.179784859	 3.597149099
H	 -7.243219776	 -0.021734859	 4.205829099
