15
0  1  0  1  0  1   3  12 -1.60161 -1.53403 -1.45170 -1.51927 -1.46580 -1.49410 -1.23018 -1.22493 -1.21873 -1.50186 -1.27435  0.59553 -0.17974 -0.64330
O	 2.604620000	 0.075360000	 -1.501890000
H	 2.455570000	 0.057030000	 -0.554390000
H	 1.712060000	 0.058940000	 -1.853100000
F	 -0.284460544	 -0.007915503	 0.164322628
C	 -1.634590544	 0.007154497	 0.164442628
C	 -2.287020544	 1.229314497	 0.164392628
C	 -2.314110544	 -1.200145503	 0.164612628
C	 -3.680220544	 1.236164497	 0.164512628
C	 -3.707120544	 -1.175935503	 0.164732628
C	 -4.391440544	 0.037904497	 0.164672628
H	 -1.711720544	 2.143464497	 0.164262628
H	 -1.759300544	 -2.126865503	 0.164652628
H	 -4.206510544	 2.180314497	 0.164472628
H	 -4.254340544	 -2.108105503	 0.164862628
H	 -5.471850544	 0.049944497	 0.164772628
