15
0  1  0  1  0  1   3  12 -1.34878 -1.26294 -1.13711 -1.22296 -1.15206 -1.19120 -0.75293 -0.74625 -0.74188 -1.20702 -1.33139  1.24024 -0.23229 -0.88358
O	 0.000000000	 0.000000000	 0.000000000
H	 -0.602830000	 -0.018330000	 0.746030000
H	 -0.597380000	 -0.016430000	 -0.750440000
F	 -2.710108986	 1.486969765	 -0.001621005
C	 -3.871828986	 2.175079765	 -0.001501005
C	 -3.825768986	 3.559719765	 -0.001551005
C	 -5.063958986	 1.469289765	 -0.001331005
C	 -5.028888986	 4.262259765	 -0.001431005
C	 -6.258228986	 2.186769765	 -0.001211005
C	 -6.243958986	 3.580139765	 -0.001261005
H	 -2.870468986	 4.063749765	 -0.001681005
H	 -5.046838986	 0.389319765	 -0.001291005
H	 -5.012588986	 5.343059765	 -0.001471005
H	 -7.198218986	 1.653089765	 -0.001081005
H	 -7.173588986	 4.130769765	 -0.001171005
