15
0  1  0  1  0  1   3  12 -1.73180 -1.65428 -1.56255 -1.64008 -1.57927 -1.61261 -1.28101 -1.27565 -1.27135 -1.61641 -1.41421  0.71708 -0.19885 -0.72044
O	 2.566120000	 1.568570000	 0.001640000
H	 2.053220000	 1.251280000	 0.747660000
H	 2.056990000	 1.255660000	 -0.748800000
F	 -0.247547673	 -0.150986729	 0.000068659
C	 -1.597677673	 -0.135916729	 0.000188659
C	 -2.250107673	 1.086243271	 0.000138659
C	 -2.277197673	 -1.343216729	 0.000358659
C	 -3.643307673	 1.093093271	 0.000258659
C	 -3.670207673	 -1.319006729	 0.000478659
C	 -4.354527673	 -0.105166729	 0.000418659
H	 -1.674807673	 2.000393271	 0.000008659
H	 -1.722387673	 -2.269936729	 0.000398659
H	 -4.169597673	 2.037243271	 0.000218659
H	 -4.217427673	 -2.251176729	 0.000608659
H	 -5.434937673	 -0.093126729	 0.000518659
