15
0  1  0  1  0  1   3  12 -1.56966 -1.50812 -1.43478 -1.49632 -1.44906 -1.47452 -1.24535 -1.24143 -1.23702 -1.48141 -1.19658  0.42735 -0.14970 -0.56248
O	 2.641480000	 -1.438040000	 0.001640000
H	 2.110250000	 -1.152500000	 0.747660000
H	 2.115920000	 -1.153580000	 -0.748800000
F	 -0.368855891	 0.201272356	 0.000099498
C	 -1.718985891	 0.216342356	 0.000219498
C	 -2.371415891	 1.438502356	 0.000169498
C	 -2.398505891	 -0.990957644	 0.000389498
C	 -3.764615891	 1.445352356	 0.000289498
C	 -3.791515891	 -0.966747644	 0.000509498
C	 -4.475835891	 0.247092356	 0.000449498
H	 -1.796115891	 2.352652356	 0.000039498
H	 -1.843695891	 -1.917677644	 0.000429498
H	 -4.290905891	 2.389502356	 0.000249498
H	 -4.338735891	 -1.898917644	 0.000639498
H	 -5.556245891	 0.259132356	 0.000549498
