15
0  1  0  1  0  1   3  12 -1.70867 -1.63365 -1.54258 -1.61759 -1.55825 -1.59052 -1.28328 -1.27754 -1.27271 -1.59424 -1.39085  0.69207 -0.19602 -0.69945
O	 2.641480000	 -1.438040000	 0.001640000
H	 2.110250000	 -1.152500000	 0.747660000
H	 2.115920000	 -1.153580000	 -0.748800000
F	 -0.256040396	 0.139712704	 0.000069066
C	 -1.606170396	 0.154782704	 0.000189066
C	 -2.258600396	 1.376942704	 0.000139066
C	 -2.285690396	 -1.052517296	 0.000359066
C	 -3.651800396	 1.383792704	 0.000259066
C	 -3.678700396	 -1.028307296	 0.000479066
C	 -4.363020396	 0.185532704	 0.000419066
H	 -1.683300396	 2.291092704	 0.000009066
H	 -1.730880396	 -1.979237296	 0.000399066
H	 -4.178090396	 2.327942704	 0.000219066
H	 -4.225920396	 -1.960477296	 0.000609066
H	 -5.443430396	 0.197572704	 0.000519066
