15
0  1  0  1  0  1   3  12 -0.76985 -0.50825 -0.27870 -0.54030 -0.30817 -0.44278  0.70885  0.71491  0.71395 -0.33956 -3.96785  6.66434 -0.85372 -2.18234
O	 2.602980000	 0.075360000	 1.504720000
H	 1.707900000	 0.057030000	 1.849390000
H	 2.460860000	 0.058940000	 0.556140000
F	 0.279757146	 0.007782515	 0.161430307
C	 -1.070372854	 0.022852515	 0.161550307
C	 -1.722802854	 1.245012515	 0.161500307
C	 -1.749892854	 -1.184447485	 0.161720307
C	 -3.116002854	 1.251862515	 0.161620307
C	 -3.142902854	 -1.160237485	 0.161840307
C	 -3.827222854	 0.053602515	 0.161780307
H	 -1.147502854	 2.159162515	 0.161370307
H	 -1.195082854	 -2.111167485	 0.161760307
H	 -3.642292854	 2.196012515	 0.161580307
H	 -3.690122854	 -2.092407485	 0.161970307
H	 -4.907632854	 0.065642515	 0.161880307
