15
0  1  0  1  0  1   3  12 -1.98919 -1.85753 -1.72690 -1.85856 -1.74466 -1.81189 -1.30839 -1.30113 -1.30440 -1.78790 -2.17581  2.16219 -0.57429 -1.19999
O	 0.000000000	 0.000000000	 0.000000000
H	 -0.602830000	 -0.018330000	 0.746030000
H	 -0.597380000	 -0.016430000	 -0.750440000
F	 -2.641849795	 -0.076485218	 -1.533879309
C	 -3.811159795	 -0.061425218	 -2.208839309
C	 -4.376159795	 1.160734782	 -2.535109309
C	 -4.399729795	 -1.268725218	 -2.548459309
C	 -5.582759795	 1.167594782	 -3.231609309
C	 -5.606169795	 -1.244505218	 -3.244859309
C	 -6.198779795	 -0.030675218	 -3.587069309
H	 -3.877869795	 2.074884782	 -2.247569309
H	 -3.919269795	 -2.195435218	 -2.271019309
H	 -6.038529795	 2.111744782	 -3.494779309
H	 -6.080139795	 -2.176675218	 -3.518359309
H	 -7.134489795	 -0.018625218	 -4.127189309
