15
0  1  0  1  0  1   3  12 -1.94649 -1.85128 -1.74296 -1.83817 -1.75587 -1.80286 -1.44511 -1.43678 -1.43538 -1.80243 -1.77020  1.29456 -0.39545 -0.93134
O	 0.000000000	 0.000000000	 0.000000000
H	 -0.602830000	 -0.018330000	 0.746030000
H	 -0.597380000	 -0.016430000	 -0.750440000
F	 -2.749310047	 -0.079596019	 -1.614493746
C	 -3.918620047	 -0.064536019	 -2.289453746
C	 -4.483620048	 1.157623981	 -2.615723746
C	 -4.507190047	 -1.271836019	 -2.629073746
C	 -5.690220048	 1.164483981	 -3.312223746
C	 -5.713630048	 -1.247616019	 -3.325473746
C	 -6.306240047	 -0.033786019	 -3.667683746
H	 -3.985330047	 2.071773981	 -2.328183746
H	 -4.026730047	 -2.198546019	 -2.351633746
H	 -6.145990047	 2.108633981	 -3.575393746
H	 -6.187600048	 -2.179786019	 -3.598973746
H	 -7.241950047	 -0.021736019	 -4.207803746
