15
0  1  0  1  0  1   3  12  3.16900  3.69453  4.00722  3.48170  3.95609  3.66626  5.86709  5.86751  5.83061  4.08475 -8.92070 18.95107 -1.99404 -3.95158
O	 2.641480000	 -1.438040000	 0.001640000
H	 2.110250000	 -1.152500000	 0.747660000
H	 2.115920000	 -1.153580000	 -0.748800000
F	 0.533668069	 -0.291204864	 -0.000143956
C	 -0.816461931	 -0.276134864	 -0.000023956
C	 -1.468891931	 0.946025136	 -0.000073956
C	 -1.495981931	 -1.483434864	 0.000146044
C	 -2.862091931	 0.952875136	 0.000046044
C	 -2.888991931	 -1.459224864	 0.000266044
C	 -3.573311931	 -0.245384864	 0.000206044
H	 -0.893591931	 1.860175136	 -0.000203956
H	 -0.941171931	 -2.410154864	 0.000186044
H	 -3.388381931	 1.897025136	 0.000006044
H	 -3.436211931	 -2.391394864	 0.000396044
H	 -4.653721931	 -0.233344864	 0.000306044
