15
0  1  0  1  0  1   3  12  2.94940  3.44140  3.73841  3.24640  3.69114  3.42179  5.49030  5.48890  5.45991  3.79938 -7.90513 17.23962 -1.81213 -3.72298
O	 2.602980000	 0.075360000	 1.504720000
H	 1.707900000	 0.057030000	 1.849390000
H	 2.460860000	 0.058940000	 0.556140000
F	 0.505335003	 0.014057825	 0.291597144
C	 -0.844794997	 0.029127825	 0.291717144
C	 -1.497224997	 1.251287825	 0.291667144
C	 -1.524314997	 -1.178172175	 0.291887144
C	 -2.890424997	 1.258137825	 0.291787144
C	 -2.917324997	 -1.153962175	 0.292007144
C	 -3.601644997	 0.059877825	 0.291947144
H	 -0.921924997	 2.165437825	 0.291537144
H	 -0.969504997	 -2.104892175	 0.291927144
H	 -3.416714997	 2.202287825	 0.291747144
H	 -3.464544997	 -2.086132175	 0.292137144
H	 -4.682054997	 0.071917825	 0.292047144
