15
0  1  0  1  0  1   3  12 -1.60272 -1.53513 -1.45276 -1.52036 -1.46687 -1.49519 -1.23045 -1.22518 -1.21901 -1.50288 -1.27581  0.59697 -0.18007 -0.64398
O	 2.602980000	 0.075360000	 1.504720000
H	 1.707900000	 0.057030000	 1.849390000
H	 2.460860000	 0.058940000	 0.556140000
F	 -0.284187496	 -0.007905762	 -0.163986784
C	 -1.634317496	 0.007164238	 -0.163866784
C	 -2.286747496	 1.229324238	 -0.163916784
C	 -2.313837496	 -1.200135762	 -0.163696784
C	 -3.679947496	 1.236174238	 -0.163796784
C	 -3.706847496	 -1.175925762	 -0.163576784
C	 -4.391167496	 0.037914238	 -0.163636784
H	 -1.711447496	 2.143474238	 -0.164046784
H	 -1.759027496	 -2.126855762	 -0.163656784
H	 -4.206237496	 2.180324238	 -0.163836784
H	 -4.254067496	 -2.108095762	 -0.163446784
H	 -5.471577496	 0.049954238	 -0.163536784
