15
0  1  0  1  0  1   3  12 -1.09607 -1.05112 -0.98574 -1.03069 -0.99692 -1.01520 -0.83784 -0.83664 -0.83367 -1.03776 -0.77641  0.27037 -0.09576 -0.43596
O	 0.000000000	 0.000000000	 0.000000000
H	 -0.602830000	 -0.018330000	 0.746030000
H	 -0.597380000	 -0.016430000	 -0.750440000
F	 -3.043267510	 1.724498675	 -0.001528796
C	 -4.204987510	 2.412608675	 -0.001408796
C	 -4.158927510	 3.797248675	 -0.001458796
C	 -5.397117510	 1.706818675	 -0.001238796
C	 -5.362047510	 4.499788675	 -0.001338796
C	 -6.591387510	 2.424298675	 -0.001118796
C	 -6.577117510	 3.817668675	 -0.001168796
H	 -3.203627510	 4.301278675	 -0.001588796
H	 -5.379997510	 0.626848675	 -0.001198796
H	 -5.345747510	 5.580588675	 -0.001378796
H	 -7.531377510	 1.890618675	 -0.000988796
H	 -7.506747510	 4.368298675	 -0.001078796
