15
0  1  0  1  0  1   3  12 -1.29578 -1.22776 -1.12667 -1.19469 -1.14093 -1.17045 -0.84321 -0.83893 -0.83524 -1.19211 -1.07765  0.74832 -0.17054 -0.69224
O	 0.000000000	 0.000000000	 0.000000000
H	 -0.602830000	 -0.018330000	 0.746030000
H	 -0.597380000	 -0.016430000	 -0.750440000
F	 -2.821161828	 1.566146068	 -0.001590269
C	 -3.982881827	 2.254256068	 -0.001470269
C	 -3.936821828	 3.638896068	 -0.001520269
C	 -5.175011828	 1.548466068	 -0.001300269
C	 -5.139941827	 4.341436068	 -0.001400269
C	 -6.369281828	 2.265946068	 -0.001180269
C	 -6.355011828	 3.659316068	 -0.001230269
H	 -2.981521827	 4.142926068	 -0.001650269
H	 -5.157891828	 0.468496068	 -0.001260269
H	 -5.123641828	 5.422236068	 -0.001440269
H	 -7.309271827	 1.732266068	 -0.001050269
H	 -7.284641827	 4.209946068	 -0.001140269
