15
0  1  0  1  0  1   3  12 -1.20269 -1.14767 -1.06649 -1.12150 -1.07963 -1.10249 -0.85994 -0.85761 -0.85441 -1.12597 -0.90224  0.45032 -0.12698 -0.54707
O	 0.000000000	 0.000000000	 0.000000000
H	 -0.602830000	 -0.018330000	 0.746030000
H	 -0.597380000	 -0.016430000	 -0.750440000
F	 -2.932214669	 1.645322372	 -0.001559532
C	 -4.093934669	 2.333432372	 -0.001439532
C	 -4.047874669	 3.718072372	 -0.001489532
C	 -5.286064669	 1.627642372	 -0.001269532
C	 -5.250994669	 4.420612372	 -0.001369532
C	 -6.480334669	 2.345122372	 -0.001149532
C	 -6.466064669	 3.738492372	 -0.001199532
H	 -3.092574669	 4.222102372	 -0.001619532
H	 -5.268944669	 0.547672372	 -0.001229532
H	 -5.234694669	 5.501412372	 -0.001409532
H	 -7.420324669	 1.811442372	 -0.001019532
H	 -7.395694669	 4.289122372	 -0.001109532
