15
0  1  0  1  0  1   3  12 -1.99225 -1.86019 -1.72976 -1.86182 -1.74749 -1.81506 -1.31031 -1.30308 -1.30656 -1.79028 -2.18067  2.17244 -0.57897 -1.20308
O	 0.000000000	 0.000000000	 0.000000000
H	 -0.602830000	 -0.018330000	 0.746030000
H	 -0.597380000	 -0.016430000	 -0.750440000
F	 -2.643483537	 -0.076484116	 1.531051394
C	 -3.812673537	 -0.061424116	 2.206221394
C	 -4.377723537	 1.160735884	 2.532391394
C	 -4.401073537	 -1.268724116	 2.546131394
C	 -5.584213537	 1.167595884	 3.229091394
C	 -5.607393537	 -1.244504116	 3.242731394
C	 -6.200063537	 -0.030674116	 3.584851394
H	 -3.879563537	 2.074885884	 2.244631394
H	 -3.920573537	 -2.195434116	 2.268751394
H	 -6.040003537	 2.111745884	 3.492201394
H	 -6.081233537	 -2.176674116	 3.516451394
H	 -7.135673537	 -0.018624116	 4.125131394
