15
0  1  0  1  0  1   3  12 -0.55983 -0.34352 -0.11228 -0.32860 -0.13550 -0.24697  0.83122  0.84055  0.84093 -0.17966 -3.21672  5.65338 -0.66694 -1.94939
O	 0.000000000	 0.000000000	 0.000000000
H	 -0.602830000	 -0.018330000	 0.746030000
H	 -0.597380000	 -0.016430000	 -0.750440000
F	 -2.309043879	 -1.365736396	 -0.001713879
C	 -3.485823879	 -2.027756396	 -0.001593879
C	 -4.661933879	 -1.295546396	 -0.001643879
C	 -3.470663879	 -3.413066396	 -0.001423879
C	 -5.871903879	 -1.986216396	 -0.001523879
C	 -4.689143879	 -4.088596396	 -0.001303879
C	 -5.888703879	 -3.379556396	 -0.001353879
H	 -4.620783879	 -0.216226396	 -0.001773879
H	 -2.526823879	 -3.938226396	 -0.001383879
H	 -6.799763879	 -1.431696396	 -0.001563879
H	 -4.696963879	 -5.169496396	 -0.001173879
H	 -6.830383879	 -3.909316396	 -0.001263879
