15
0  1  0  1  0  1   3  12 -1.65474 -1.58662 -1.49523 -1.56335 -1.50884 -1.53757 -1.29656 -1.29023 -1.28363 -1.54620 -1.32837  0.62663 -0.19042 -0.65403
O	 4.872050000	 0.038280000	 0.001410000
H	 4.269220000	 0.019960000	 0.747440000
H	 4.274670000	 0.021860000	 -0.749030000
F	 1.574326293	 -0.044095021	 -0.000161652
C	 0.224196293	 -0.029025021	 -0.000041652
C	 -0.428233707	 1.193134979	 -0.000091652
C	 -0.455323707	 -1.236325021	 0.000128348
C	 -1.821433707	 1.199994979	 0.000028348
C	 -1.848333707	 -1.212105021	 0.000248348
C	 -2.532653707	 0.001724979	 0.000198348
H	 0.147066293	 2.107284979	 -0.000221652
H	 0.099486293	 -2.163045021	 0.000168348
H	 -2.347723707	 2.144144979	 -0.000011652
H	 -2.395553707	 -2.144285021	 0.000378348
H	 -3.613063707	 0.013764979	 0.000288348
