15
0  1  0  1  0  1   3  12 -1.70689 -1.62283 -1.51996 -1.60402 -1.53535 -1.57212 -1.21432 -1.20723 -1.20028 -1.57552 -1.49873  0.96967 -0.23810 -0.80836
O	 2.604620000	 0.075360000	 -1.501890000
H	 2.455570000	 0.057030000	 -0.554390000
H	 1.712060000	 0.058940000	 -1.853100000
F	 -0.171685518	 -0.004777384	 0.099176551
C	 -1.521815518	 0.010292616	 0.099296551
C	 -2.174245518	 1.232452616	 0.099246551
C	 -2.201335518	 -1.197007384	 0.099466551
C	 -3.567445518	 1.239302616	 0.099366551
C	 -3.594345518	 -1.172797384	 0.099586551
C	 -4.278665518	 0.041042616	 0.099526551
H	 -1.598945518	 2.146602616	 0.099116551
H	 -1.646525518	 -2.123727384	 0.099506551
H	 -4.093735518	 2.183452616	 0.099326551
H	 -4.141565518	 -2.104967384	 0.099716551
H	 -5.359075518	 0.053082616	 0.099626551
