15
0  1  0  1  0  1   3  12  3.23458  3.76821  4.08406  3.55043  4.03112  3.73713  5.98275  5.98302  5.94488  4.13988 -9.16559 19.33762 -2.00797 -4.02418
O	 2.566120000	 1.568570000	 0.001640000
H	 2.053220000	 1.251280000	 0.747660000
H	 2.056990000	 1.255660000	 -0.748800000
F	 0.520003218	 0.317165514	 -0.000144227
C	 -0.830126782	 0.332235514	 -0.000024227
C	 -1.482556782	 1.554395514	 -0.000074227
C	 -1.509646782	 -0.875064486	 0.000145773
C	 -2.875756782	 1.561245514	 0.000045773
C	 -2.902656782	 -0.850854486	 0.000265773
C	 -3.586976782	 0.362985514	 0.000205773
H	 -0.907256782	 2.468545514	 -0.000204227
H	 -0.954836782	 -1.801784486	 0.000185773
H	 -3.402046782	 2.505395514	 0.000005773
H	 -3.449876782	 -1.783024486	 0.000395773
H	 -4.667386782	 0.375025514	 0.000305773
