15
0  1  0  1  0  1   3  12 -1.31375 -1.20135 -1.04546 -1.15786 -1.06130 -1.11508 -0.52934 -0.52052 -0.51567 -1.11863 -1.70968  2.05052 -0.32179 -1.13768
O	 0.000000000	 0.000000000	 0.000000000
H	 -0.602830000	 -0.018330000	 0.746030000
H	 -0.597380000	 -0.016430000	 -0.750440000
F	 -2.599056145	 1.407793462	 -0.001651742
C	 -3.760776145	 2.095903462	 -0.001531742
C	 -3.714716145	 3.480543462	 -0.001581742
C	 -4.952906145	 1.390113462	 -0.001361742
C	 -4.917836145	 4.183083462	 -0.001461742
C	 -6.147176145	 2.107593462	 -0.001241742
C	 -6.132906145	 3.500963462	 -0.001291742
H	 -2.759416145	 3.984573462	 -0.001711742
H	 -4.935786145	 0.310143462	 -0.001321742
H	 -4.901536145	 5.263883462	 -0.001501742
H	 -7.087166145	 1.573913462	 -0.001111742
H	 -7.062536145	 4.051593462	 -0.001201742
