15
0  1  0  1  0  1   3  12 -1.34579 -1.25858 -1.13226 -1.21947 -1.14768 -1.18752 -0.73326 -0.72675 -0.72280 -1.20169 -1.33646  1.26301 -0.23618 -0.89206
O	 0.000000000	 0.000000000	 0.000000000
H	 -0.602830000	 -0.018330000	 0.746030000
H	 -0.597380000	 -0.016430000	 -0.750440000
F	 -2.629469918	 -1.618553220	 -0.001621794
C	 -3.806249918	 -2.280573220	 -0.001501794
C	 -4.982359918	 -1.548363220	 -0.001551794
C	 -3.791089918	 -3.665883220	 -0.001331794
C	 -6.192329918	 -2.239033220	 -0.001431794
C	 -5.009569918	 -4.341413220	 -0.001211794
C	 -6.209129918	 -3.632373220	 -0.001261794
H	 -4.941209918	 -0.469043220	 -0.001681794
H	 -2.847249918	 -4.191043220	 -0.001291794
H	 -7.120189918	 -1.684513220	 -0.001471794
H	 -5.017389918	 -5.422313220	 -0.001081794
H	 -7.150809918	 -4.162133220	 -0.001171794
