15
0  1  0  1  0  1   3  12 -1.86376 -1.68056 -1.52669 -1.70989 -1.54999 -1.64736 -0.94665 -0.94089 -0.95257 -1.57007 -2.76870  3.61989 -0.85943 -1.56184
O	 0.000000000	 0.000000000	 0.000000000
H	 -0.602830000	 -0.018330000	 0.746030000
H	 -0.597380000	 -0.016430000	 -0.750440000
F	 -2.535937298	 -0.073373373	 1.450353689
C	 -3.705127298	 -0.058313373	 2.125523689
C	 -4.270177298	 1.163846627	 2.451693689
C	 -4.293527298	 -1.265613373	 2.465433689
C	 -5.476667298	 1.170706627	 3.148393689
C	 -5.499847298	 -1.241393373	 3.162033689
C	 -6.092517298	 -0.027563373	 3.504153689
H	 -3.772017298	 2.077996627	 2.163933689
H	 -3.813027298	 -2.192323373	 2.188053689
H	 -5.932457298	 2.114856627	 3.411503689
H	 -5.973687298	 -2.173563373	 3.435753689
H	 -7.028127298	 -0.015513373	 4.044433689
