15
0  1  0  1  0  1   3  12 -1.87720 -1.75817 -1.61841 -1.73743 -1.63753 -1.69292 -1.15325 -1.14436 -1.13875 -1.68075 -2.02404  1.80015 -0.34981 -1.10706
O	 2.641480000	 -1.438040000	 0.001640000
H	 2.110250000	 -1.152500000	 0.747660000
H	 2.115920000	 -1.153580000	 -0.748800000
F	 -0.030409406	 0.016593399	 0.000008203
C	 -1.380539406	 0.031663399	 0.000128203
C	 -2.032969406	 1.253823399	 0.000078203
C	 -2.060059406	 -1.175636601	 0.000298203
C	 -3.426169406	 1.260673399	 0.000198203
C	 -3.453069406	 -1.151426601	 0.000418203
C	 -4.137389406	 0.062413399	 0.000358203
H	 -1.457669406	 2.167973399	 -0.000051797
H	 -1.505249406	 -2.102356601	 0.000338203
H	 -3.952459406	 2.204823399	 0.000158203
H	 -4.000289406	 -2.083596601	 0.000548203
H	 -5.217799406	 0.074453399	 0.000458203
