15
0  1  0  1  0  1   3  12  2.69738  3.12646  3.43597  3.00688  3.39782  3.16305  5.12258  5.12779  5.10704  3.46612 -6.87631 15.22340 -1.48851 -3.39247
O	 0.000000000	 0.000000000	 0.000000000
H	 -0.602830000	 -0.018330000	 0.746030000
H	 -0.597380000	 -0.016430000	 -0.750440000
F	 -2.095426519	 -1.197191846	 -0.001775269
C	 -3.272206519	 -1.859211846	 -0.001655269
C	 -4.448316519	 -1.127001846	 -0.001705269
C	 -3.257046519	 -3.244521846	 -0.001485269
C	 -5.658286519	 -1.817671846	 -0.001585269
C	 -4.475526519	 -3.920051846	 -0.001365269
C	 -5.675086519	 -3.211011846	 -0.001415269
H	 -4.407166519	 -0.047681846	 -0.001835269
H	 -2.313206519	 -3.769681846	 -0.001445269
H	 -6.586146519	 -1.263151846	 -0.001625269
H	 -4.483346519	 -5.000951846	 -0.001235269
H	 -6.616766519	 -3.740771846	 -0.001325269
