15
0  1  0  1  0  1   3  12 -1.84821 -1.75214 -1.63816 -1.73423 -1.65629 -1.69932 -1.26421 -1.25705 -1.25224 -1.69786 -1.68775  1.15525 -0.26373 -0.90163
O	 2.566120000	 1.568570000	 0.001640000
H	 2.053220000	 1.251280000	 0.747660000
H	 2.056990000	 1.255660000	 -0.748800000
F	 -0.137897545	 -0.084107837	 0.000038247
C	 -1.488027546	 -0.069037837	 0.000158247
C	 -2.140457545	 1.153122163	 0.000108247
C	 -2.167547546	 -1.276337837	 0.000328247
C	 -3.533657546	 1.159972163	 0.000228247
C	 -3.560557546	 -1.252127837	 0.000448247
C	 -4.244877545	 -0.038287837	 0.000388247
H	 -1.565157545	 2.067272163	 -0.000021753
H	 -1.612737545	 -2.203057837	 0.000368247
H	 -4.059947546	 2.104122163	 0.000188247
H	 -4.107777545	 -2.184297837	 0.000578247
H	 -5.325287546	 -0.026247837	 0.000488247
