15
0  1  0  1  0  1   3  12 -1.66473 -1.61285 -1.54115 -1.59302 -1.54725 -1.57148 -1.40274 -1.39425 -1.38897 -1.58160 -1.26910  0.46101 -0.19913 -0.57438
O	 0.000000000	 0.000000000	 0.000000000
H	 -0.602830000	 -0.018330000	 0.746030000
H	 -0.597380000	 -0.016430000	 -0.750440000
F	 -2.964230552	 -0.085817621	 -1.775722620
C	 -4.133540552	 -0.070757621	 -2.450682620
C	 -4.698540552	 1.151402379	 -2.776952620
C	 -4.722110552	 -1.278057621	 -2.790302620
C	 -5.905140552	 1.158262379	 -3.473452620
C	 -5.928550552	 -1.253837621	 -3.486702620
C	 -6.521160552	 -0.040007621	 -3.828912620
H	 -4.200250552	 2.065552379	 -2.489412620
H	 -4.241650552	 -2.204767621	 -2.512862620
H	 -6.360910552	 2.102412379	 -3.736622620
H	 -6.402520552	 -2.186007621	 -3.760202620
H	 -7.456870552	 -0.027957621	 -4.369032620
