15
0  1  0  1  0  1   3  12 -0.23343 -0.21470 -0.19486 -0.21359 -0.20216 -0.21104  0.29200  0.29163  0.28625 -0.21776  0.04502  0.29176 -0.10193 -0.45261
O	 2.662570000	 1.398370000	 0.000050000
H	 2.621290000	 1.989580000	 0.754110000
H	 2.621290000	 1.989560000	 -0.754030000
Cl	 -0.730289700	 -0.383544924	 -0.000013714
C	 -2.462399700	 -0.314534924	 -0.000053714
C	 -3.101049700	 0.923105076	 -0.000083714
C	 -3.194209700	 -1.499474924	 -0.000043714
C	 -4.493019700	 0.969725076	 -0.000113714
C	 -4.585559700	 -1.438644924	 -0.000073714
C	 -5.238139700	 -0.207564924	 -0.000113714
H	 -2.512009700	 1.828705076	 -0.000093714
H	 -2.675999700	 -2.447394924	 -0.000013714
H	 -4.993209700	 1.928435076	 -0.000143714
H	 -5.157889700	 -2.356084924	 -0.000073714
H	 -6.318209700	 -0.166014924	 -0.000133714
