15
0  1  0  1  0  1   3  12 -0.23215 -0.20637 -0.18620 -0.21198 -0.19370 -0.20550  0.38037  0.38045  0.37752 -0.20227  0.03736  0.41676 -0.12928 -0.52711
O	 2.602460000	 -0.120260000	 -1.502470000
H	 3.204540000	 0.412380000	 -0.979360000
H	 2.450460000	 0.412360000	 -2.285450000
Cl	 -0.620556587	 0.028675997	 0.358263972
C	 -2.352666587	 0.097685997	 0.358223972
C	 -2.991316587	 1.335325997	 0.358193971
C	 -3.084476587	 -1.087254003	 0.358233972
C	 -4.383286587	 1.381945997	 0.358163972
C	 -4.475826587	 -1.026424003	 0.358203971
C	 -5.128406587	 0.204655997	 0.358163972
H	 -2.402276587	 2.240925997	 0.358183971
H	 -2.566266587	 -2.035174003	 0.358263972
H	 -4.883476587	 2.340655997	 0.358133971
H	 -5.048156587	 -1.943864003	 0.358203971
H	 -6.208476587	 0.246205997	 0.358143971
