15
0  1  0  1  0  1   3  12  1.46141  1.85182  1.72504  1.33463  1.70287  1.45696  4.58624  4.58576  4.50748  1.79580 -6.07888 13.26907 -2.10256 -3.29182
O	 0.000000000	 0.000000000	 0.000000000
H	 0.259860000	 0.532640000	 0.754060000
H	 0.259850000	 0.532620000	 -0.754080000
Cl	 -2.313688128	 -1.215138782	 -0.000043448
C	 -3.848238128	 -2.021428782	 -0.000083448
C	 -5.020148128	 -1.268928782	 -0.000123448
C	 -3.889528128	 -3.413518782	 -0.000083448
C	 -6.248948128	 -1.924538782	 -0.000153448
C	 -5.124898128	 -4.056518782	 -0.000113448
C	 -6.305588128	 -3.316658782	 -0.000143448
H	 -4.962818128	 -0.190128782	 -0.000123448
H	 -2.966788128	 -3.975338782	 -0.000053448
H	 -7.161468128	 -1.344358782	 -0.000173448
H	 -5.161828128	 -5.137208782	 -0.000103448
H	 -7.261738128	 -3.820708782	 -0.000173448
