15
0  1  0  1  0  1   3  12 -0.69700 -0.65090 -0.61258 -0.65868 -0.62268 -0.64390 -0.00418 -0.00174 -0.00271 -0.66221 -0.45987  0.60808 -0.12263 -0.68779
O	 0.000000000	 0.000000000	 0.000000000
H	 0.259860000	 0.532640000	 0.754060000
H	 0.259850000	 0.532620000	 -0.754080000
Cl	 -3.040235396	 1.921345156	 -0.000059793
C	 -4.505775396	 2.847155156	 -0.000099793
C	 -4.440045396	 4.238315156	 -0.000139793
C	 -5.732015396	 2.186875156	 -0.000099793
C	 -5.622215396	 4.974675156	 -0.000169793
C	 -6.906545396	 2.935235156	 -0.000129793
C	 -6.856145396	 4.327675156	 -0.000159793
H	 -3.477115396	 4.728065156	 -0.000139793
H	 -5.757185396	 1.106845156	 -0.000069793
H	 -5.576035396	 6.055035156	 -0.000189793
H	 -7.860915396	 2.426865156	 -0.000119793
H	 -7.770745396	 4.903695156	 -0.000189793
