15
0  1  0  1  0  1   3  12 -0.27438 -0.23958 -0.21843 -0.25323 -0.22615 -0.24283  0.41806  0.41818  0.41575 -0.24890 -0.03000  0.55705 -0.15481 -0.62115
O	 2.542310000	 -1.606670000	 0.000050000
H	 3.033670000	 -1.275310000	 0.754110000
H	 3.033650000	 -1.275320000	 -0.754030000
Cl	 -0.526725955	 0.332876317	 -0.000010359
C	 -2.258835955	 0.401886317	 -0.000050359
C	 -2.897485955	 1.639526317	 -0.000080359
C	 -2.990645955	 -0.783053683	 -0.000040359
C	 -4.289455955	 1.686146317	 -0.000110359
C	 -4.381995955	 -0.722223683	 -0.000070359
C	 -5.034575955	 0.508856317	 -0.000110359
H	 -2.308445955	 2.545126317	 -0.000090359
H	 -2.472435955	 -1.730973683	 -0.000010359
H	 -4.789645955	 2.644856317	 -0.000140359
H	 -4.954325955	 -1.639663683	 -0.000070359
H	 -6.114645955	 0.550406317	 -0.000130359
