15
0  1  0  1  0  1   3  12 -0.53069 -0.50903 -0.48802 -0.50967 -0.49362 -0.50430  0.07977  0.08142  0.07810 -0.52644 -0.23183  0.41348 -0.14035 -0.56775
O	 5.017950000	 -0.261370000	 0.000100000
H	 5.277810000	 0.271270000	 0.754160000
H	 5.277800000	 0.271260000	 -0.753980000
Cl	 1.367220189	 -0.115269373	 0.000039256
C	 -0.364889811	 -0.046259373	 -0.000000744
C	 -1.003549811	 1.191380627	 -0.000040744
C	 -1.096699811	 -1.231199373	 -0.000000744
C	 -2.395519811	 1.238000627	 -0.000070744
C	 -2.488059811	 -1.170369373	 -0.000030744
C	 -3.140629811	 0.060720627	 -0.000060744
H	 -0.414499811	 2.096980627	 -0.000040744
H	 -0.578489811	 -2.179119373	 0.000029256
H	 -2.895699811	 2.196710627	 -0.000100744
H	 -3.060379811	 -2.087809373	 -0.000030744
H	 -4.220709811	 0.102270627	 -0.000090744
