15
0  1  0  1  0  1   3  12 -0.30419 -0.22141 -0.18375 -0.26653 -0.19760 -0.24011  0.85751  0.85780  0.85151 -0.27403 -0.67652  1.86732 -0.33654 -1.12829
O	 2.662570000	 1.398370000	 0.000050000
H	 2.621290000	 1.989580000	 0.754110000
H	 2.621290000	 1.989560000	 -0.754030000
Cl	 -0.245595457	 -0.128985649	 -0.000004612
C	 -1.977705457	 -0.059975649	 -0.000044612
C	 -2.616355457	 1.177664351	 -0.000074612
C	 -2.709515457	 -1.244915649	 -0.000034612
C	 -4.008325457	 1.224284351	 -0.000104612
C	 -4.100865457	 -1.184085649	 -0.000064612
C	 -4.753445457	 0.046994351	 -0.000104612
H	 -2.027315457	 2.083264351	 -0.000084612
H	 -2.191305457	 -2.192835649	 -0.000004612
H	 -4.508515457	 2.182994351	 -0.000134612
H	 -4.673195457	 -2.101525649	 -0.000064612
H	 -5.833515457	 0.088544351	 -0.000124612
