15
0  1  0  1  0  1   3  12 -0.71226 -0.64263 -0.62268 -0.69232 -0.63631 -0.67122  0.25604  0.25796  0.25196 -0.66976 -0.58851  1.09928 -0.23398 -0.94655
O	 0.000000000	 0.000000000	 0.000000000
H	 0.259860000	 0.532640000	 0.754060000
H	 0.259850000	 0.532620000	 -0.754080000
Cl	 -2.904267286	 0.134206552	 1.676711446
C	 -4.404337286	 0.203216552	 2.542731446
C	 -4.957447286	 1.440856552	 2.862031446
C	 -5.038097286	 -0.981723448	 2.908641446
C	 -6.162947286	 1.487476552	 3.557991446
C	 -6.243067286	 -0.920893448	 3.604291446
C	 -6.808227286	 0.310186552	 3.930551446
H	 -4.447317286	 2.346456552	 2.567501446
H	 -4.589307286	 -1.929643448	 2.649561446
H	 -6.596127286	 2.446186552	 3.808051446
H	 -6.738707286	 -1.838333448	 3.890461446
H	 -7.743617286	 0.351736552	 4.470571446
