15
0  1  0  1  0  1   3  12  0.71661  1.10577  1.13950  0.75034  1.10432  0.87701  3.55375  3.55507  3.50134  1.00374 -5.82999 11.34978 -1.46358 -3.05248
O	 0.000000000	 0.000000000	 0.000000000
H	 0.259860000	 0.532640000	 0.754060000
H	 0.259850000	 0.532620000	 -0.754080000
Cl	 -2.316369826	 1.463882024	 -0.000045556
C	 -3.781909826	 2.389692024	 -0.000085556
C	 -3.716179826	 3.780852024	 -0.000125556
C	 -5.008149826	 1.729412024	 -0.000085556
C	 -4.898349826	 4.517212024	 -0.000155556
C	 -6.182679826	 2.477772024	 -0.000115556
C	 -6.132279826	 3.870212024	 -0.000145556
H	 -2.753249826	 4.270602024	 -0.000125556
H	 -5.033319826	 0.649382024	 -0.000055556
H	 -4.852169826	 5.597572024	 -0.000175556
H	 -7.137049826	 1.969402024	 -0.000105556
H	 -7.046879826	 4.446232024	 -0.000175556
