15
0  1  0  1  0  1   3  12 -0.85511 -0.74839 -0.69229 -0.79901 -0.70831 -0.76337  0.33667  0.34059  0.33439 -0.79488 -1.23143  1.97798 -0.30616 -1.23527
O	 0.000000000	 0.000000000	 0.000000000
H	 0.259860000	 0.532640000	 0.754060000
H	 0.259850000	 0.532620000	 -0.754080000
Cl	 -2.750689168	 1.738359903	 -0.000054098
C	 -4.216229168	 2.664169903	 -0.000094098
C	 -4.150499168	 4.055329903	 -0.000134098
C	 -5.442469168	 2.003889903	 -0.000094098
C	 -5.332669168	 4.791689903	 -0.000164098
C	 -6.616999168	 2.752249903	 -0.000124098
C	 -6.566599168	 4.144689903	 -0.000154098
H	 -3.187569168	 4.545079903	 -0.000134098
H	 -5.467639168	 0.923859903	 -0.000064098
H	 -5.286489168	 5.872049903	 -0.000184098
H	 -7.571369168	 2.243879903	 -0.000114098
H	 -7.481199168	 4.720709903	 -0.000184098
