15
0  1  0  1  0  1   3  12 -0.61747 -0.44984 -0.43700 -0.60463 -0.45915 -0.55151  1.06032  1.06204  1.04246 -0.50272 -1.79115  3.58168 -0.58557 -1.70768
O	 0.000000000	 0.000000000	 0.000000000
H	 0.259860000	 0.532640000	 0.754060000
H	 0.259850000	 0.532620000	 -0.754080000
Cl	 -2.613840558	 0.120785897	 1.509040301
C	 -4.113910558	 0.189795897	 2.375060301
C	 -4.667020558	 1.427435897	 2.694360301
C	 -4.747670558	 -0.995144103	 2.740970301
C	 -5.872520558	 1.474055897	 3.390320301
C	 -5.952640558	 -0.934314103	 3.436620301
C	 -6.517800558	 0.296765897	 3.762880301
H	 -4.156890558	 2.333035897	 2.399830301
H	 -4.298880558	 -1.943064103	 2.481890301
H	 -6.305700558	 2.432765897	 3.640380301
H	 -6.448280558	 -1.851754103	 3.722790301
H	 -7.453190558	 0.338315897	 4.302900301
