15
0  1  0  1  0  1   3  12 -0.80405 -0.73449 -0.68704 -0.75659 -0.69958 -0.73352  0.10126  0.10453  0.10222 -0.76036 -0.74773  1.09758 -0.19079 -0.91943
O	 0.000000000	 0.000000000	 0.000000000
H	 0.259860000	 0.532640000	 0.754060000
H	 0.259850000	 0.532620000	 -0.754080000
Cl	 -2.895462282	 1.829852530	 -0.000056946
C	 -4.361002282	 2.755662530	 -0.000096946
C	 -4.295272282	 4.146822530	 -0.000136945
C	 -5.587242282	 2.095382530	 -0.000096946
C	 -5.477442282	 4.883182530	 -0.000166946
C	 -6.761772282	 2.843742530	 -0.000126946
C	 -6.711372282	 4.236182530	 -0.000156945
H	 -3.332342282	 4.636572530	 -0.000136945
H	 -5.612412282	 1.015352530	 -0.000066946
H	 -5.431262282	 5.963542530	 -0.000186946
H	 -7.716142282	 2.335372530	 -0.000116946
H	 -7.625972282	 4.812202530	 -0.000186946
