15
0  1  0  1  0  1   3  12 -0.27821 -0.23636 -0.21104 -0.25289 -0.22015 -0.24000  0.52396  0.52450  0.52232 -0.24137 -0.11429  0.78255 -0.19304 -0.71659
O	 2.602410000	 -0.120260000	 1.502560000
H	 2.450420000	 0.412380000	 2.285530000
H	 3.204480000	 0.412360000	 0.979430000
Cl	 -0.459471100	 0.021232625	 -0.265285983
C	 -2.191581100	 0.090242625	 -0.265325983
C	 -2.830231100	 1.327882625	 -0.265355983
C	 -2.923391100	 -1.094697375	 -0.265315983
C	 -4.222201100	 1.374502625	 -0.265385983
C	 -4.314741100	 -1.033867375	 -0.265345983
C	 -4.967321100	 0.197212625	 -0.265385983
H	 -2.241191100	 2.233482625	 -0.265365983
H	 -2.405181100	 -2.042617375	 -0.265285983
H	 -4.722391100	 2.333212625	 -0.265415983
H	 -4.887071100	 -1.951307375	 -0.265345983
H	 -6.047391100	 0.238762625	 -0.265405983
