15
0  1  0  1  0  1   3  12  0.56292  0.77604  0.80323  0.59010  0.78260  0.66236  2.64321  2.64462  2.62341  0.67459 -2.74045  6.39554 -0.85163 -2.12887
O	 2.662570000	 1.398370000	 0.000050000
H	 2.621290000	 1.989580000	 0.754110000
H	 2.621290000	 1.989560000	 -0.754030000
Cl	 0.077534038	 0.040720534	 0.000001456
C	 -1.654575962	 0.109730534	 -0.000038544
C	 -2.293225962	 1.347370534	 -0.000068544
C	 -2.386385962	 -1.075209466	 -0.000028544
C	 -3.685195962	 1.393990534	 -0.000098544
C	 -3.777735962	 -1.014379466	 -0.000058544
C	 -4.430315962	 0.216700534	 -0.000098544
H	 -1.704185962	 2.252970534	 -0.000078544
H	 -1.868175962	 -2.023129466	 0.000001456
H	 -4.185385962	 2.352700534	 -0.000128544
H	 -4.350065962	 -1.931819466	 -0.000058544
H	 -5.510385962	 0.258250534	 -0.000118544
