15
0  1  0  1  0  1   3  12 -0.11214 -0.10259 -0.09417 -0.10372 -0.09805 -0.10290  0.19935  0.19905  0.19533 -0.10031  0.12607  0.07883 -0.04982 -0.25539
O	 2.542310000	 -1.606670000	 0.000050000
H	 3.033670000	 -1.275310000	 0.754110000
H	 3.033650000	 -1.275320000	 -0.754030000
Cl	 -1.011310580	 0.639120473	 -0.000019890
C	 -2.743420580	 0.708130473	 -0.000059890
C	 -3.382070580	 1.945770473	 -0.000089890
C	 -3.475230580	 -0.476809527	 -0.000049890
C	 -4.774040580	 1.992390473	 -0.000119890
C	 -4.866580580	 -0.415979527	 -0.000079890
C	 -5.519160580	 0.815100473	 -0.000119890
H	 -2.793030580	 2.851370473	 -0.000099890
H	 -2.957020580	 -1.424729527	 -0.000019890
H	 -5.274230580	 2.951100473	 -0.000149890
H	 -5.438910580	 -1.333419527	 -0.000079890
H	 -6.599230580	 0.856650473	 -0.000139890
