15
0  1  0  1  0  1   3  12  4.01142  4.48070  4.39379  3.92450  4.36587  4.08436  7.65070  7.65197  7.58952  4.40134 -7.69471 17.90624 -2.17357 -3.63662
O	 2.602410000	 -0.120260000	 1.502560000
H	 2.450420000	 0.412380000	 2.285530000
H	 3.204480000	 0.412360000	 0.979430000
Cl	 0.346287084	 -0.016002277	 0.199936644
C	 -1.385822916	 0.053007723	 0.199896644
C	 -2.024472916	 1.290647723	 0.199866644
C	 -2.117632916	 -1.131932277	 0.199906644
C	 -3.416442916	 1.337267723	 0.199836644
C	 -3.508982916	 -1.071102277	 0.199876644
C	 -4.161562916	 0.159977723	 0.199836644
H	 -1.435432916	 2.196247723	 0.199856644
H	 -1.599422916	 -2.079852277	 0.199936644
H	 -3.916632916	 2.295977723	 0.199806644
H	 -4.081312916	 -1.988542277	 0.199876644
H	 -5.241632916	 0.201527723	 0.199816644
