15
0  1  0  1  0  1   3  12 -0.77548 -0.67409 -0.64295 -0.74434 -0.65357 -0.71119  0.53735  0.54016  0.52798 -0.76179 -1.32005  2.35846 -0.46498 -1.33522
O	 5.017950000	 -0.261370000	 0.000100000
H	 5.277810000	 0.271270000	 0.754160000
H	 5.277800000	 0.271260000	 -0.753980000
Cl	 1.865046981	 -0.135192186	 0.000047540
C	 0.132936981	 -0.066182186	 0.000007540
C	 -0.505723019	 1.171457814	 -0.000032460
C	 -0.598873019	 -1.251122186	 0.000007540
C	 -1.897693019	 1.218077814	 -0.000062460
C	 -1.990233019	 -1.190292186	 -0.000022460
C	 -2.642803019	 0.040797814	 -0.000052460
H	 0.083326981	 2.077057814	 -0.000032460
H	 -0.080663019	 -2.199042186	 0.000037540
H	 -2.397873019	 2.176787814	 -0.000092460
H	 -2.562553019	 -2.107732186	 -0.000022460
H	 -3.722883019	 0.082347814	 -0.000082460
