15
0  1  0  1  0  1   3  12 -0.61399 -0.56968 -0.55251 -0.59682 -0.56332 -0.58432  0.13063  0.13213  0.12826 -0.58446 -0.32717  0.60739 -0.15415 -0.71053
O	 0.000000000	 0.000000000	 0.000000000
H	 0.259860000	 0.532640000	 0.754060000
H	 0.259850000	 0.532620000	 -0.754080000
Cl	 -3.049449387	 0.140918143	 -1.760668254
C	 -4.549479387	 0.209928143	 -2.626758254
C	 -5.102549387	 1.447568143	 -2.946118254
C	 -5.183249387	 -0.975011857	 -2.992658254
C	 -6.308019387	 1.494188143	 -3.642128254
C	 -6.388179387	 -0.914181857	 -3.688358254
C	 -6.953309387	 0.316898143	 -4.014678254
H	 -4.592419387	 2.353168143	 -2.651598254
H	 -4.734479387	 -1.922931857	 -2.733528254
H	 -6.741179387	 2.452898143	 -3.892238254
H	 -6.883829387	 -1.831621857	 -3.974518254
H	 -7.888669387	 0.358448143	 -4.554738254
