15
0  1  0  1  0  1   3  12 -0.74633 -0.63762 -0.61787 -0.72657 -0.63522 -0.69255  0.52346  0.52551  0.51480 -0.67982 -1.03242  1.98646 -0.36510 -1.26876
O	 0.000000000	 0.000000000	 0.000000000
H	 0.259860000	 0.532640000	 0.754060000
H	 0.259850000	 0.532620000	 -0.754080000
Cl	 -2.759053922	 0.127496225	 1.592875874
C	 -4.259123922	 0.196506225	 2.458895874
C	 -4.812233922	 1.434146225	 2.778195874
C	 -4.892883922	 -0.988433775	 2.824805874
C	 -6.017733922	 1.480766225	 3.474155874
C	 -6.097853922	 -0.927603775	 3.520455874
C	 -6.663013922	 0.303476225	 3.846715874
H	 -4.302103922	 2.339746225	 2.483665874
H	 -4.444093922	 -1.936353775	 2.565725874
H	 -6.450913922	 2.439476225	 3.724215874
H	 -6.593493922	 -1.845043775	 3.806625874
H	 -7.598403922	 0.345026225	 4.386735874
