15
0  1  0  1  0  1   3  12 -0.29148 -0.23537 -0.20958 -0.26570 -0.21919 -0.24699  0.63188  0.63264  0.63047 -0.26061 -0.23704  1.06881 -0.23651 -0.85587
O	 2.542310000	 -1.606670000	 0.000050000
H	 3.033670000	 -1.275310000	 0.754110000
H	 3.033650000	 -1.275320000	 -0.754030000
Cl	 -0.365197747	 0.230794932	 -0.000007182
C	 -2.097307747	 0.299804932	 -0.000047182
C	 -2.735957747	 1.537444932	 -0.000077182
C	 -2.829117747	 -0.885135068	 -0.000037182
C	 -4.127927747	 1.584064932	 -0.000107182
C	 -4.220467747	 -0.824305068	 -0.000067182
C	 -4.873047747	 0.406774932	 -0.000107182
H	 -2.146917747	 2.443044932	 -0.000087182
H	 -2.310907747	 -1.833055068	 -0.000007182
H	 -4.628117747	 2.542774932	 -0.000137182
H	 -4.792797747	 -1.741745068	 -0.000067182
H	 -5.953117747	 0.448324932	 -0.000127182
