15
0  1  0  1  0  1   3  12 -0.11235 -0.10202 -0.09083 -0.10116 -0.09582 -0.10068  0.25703  0.25683  0.25263 -0.09491  0.14443  0.11821 -0.06188 -0.29566
O	 2.602410000	 -0.120260000	 1.502560000
H	 2.450420000	 0.412380000	 2.285530000
H	 3.204480000	 0.412360000	 0.979430000
Cl	 -0.942926010	 0.043573565	 -0.544419560
C	 -2.675036010	 0.112583565	 -0.544459560
C	 -3.313686010	 1.350223565	 -0.544489560
C	 -3.406846010	 -1.072356435	 -0.544449560
C	 -4.705656010	 1.396843565	 -0.544519560
C	 -4.798196010	 -1.011526435	 -0.544479560
C	 -5.450776010	 0.219553565	 -0.544519560
H	 -2.724646010	 2.255823565	 -0.544499560
H	 -2.888636010	 -2.020276435	 -0.544419560
H	 -5.205846010	 2.355553565	 -0.544549560
H	 -5.370526010	 -1.928966435	 -0.544479560
H	 -6.530846010	 0.261103565	 -0.544539560
