15
0  1  0  1  0  1   3  12 -0.50054 -0.47219 -0.45848 -0.48683 -0.46714 -0.47987  0.07770  0.07873  0.07555 -0.47896 -0.17220  0.33546 -0.10422 -0.53800
O	 0.000000000	 0.000000000	 0.000000000
H	 0.259860000	 0.532640000	 0.754060000
H	 0.259850000	 0.532620000	 -0.754080000
Cl	 -3.194694015	 0.147627207	 1.844382590
C	 -4.694764015	 0.216637207	 2.710402590
C	 -5.247874015	 1.454277207	 3.029702590
C	 -5.328524015	 -0.968302793	 3.076312590
C	 -6.453374015	 1.500897207	 3.725662590
C	 -6.533494015	 -0.907472793	 3.771962590
C	 -7.098654015	 0.323607207	 4.098222590
H	 -4.737744015	 2.359877207	 2.735172590
H	 -4.879734015	 -1.916222793	 2.817232590
H	 -6.886554015	 2.459607207	 3.975722590
H	 -7.029134015	 -1.824912793	 4.058132590
H	 -8.034044015	 0.365157207	 4.638242590
