15
0  1  0  1  0  1   3  12 -0.51666 -0.35589 -0.37836 -0.53913 -0.39193 -0.48840  1.27241  1.27385  1.24690 -0.45445 -2.01655  4.20950 -0.82127 -1.82614
O	 0.000000000	 0.000000000	 0.000000000
H	 0.259860000	 0.532640000	 0.754060000
H	 0.259850000	 0.532620000	 -0.754080000
Cl	 -2.602899144	 -1.367031130	 -0.000048879
C	 -4.137449144	 -2.173321130	 -0.000088879
C	 -5.309359144	 -1.420821130	 -0.000128879
C	 -4.178739144	 -3.565411130	 -0.000088879
C	 -6.538159144	 -2.076431130	 -0.000158879
C	 -5.414109144	 -4.208411130	 -0.000118879
C	 -6.594799144	 -3.468551130	 -0.000148879
H	 -5.252029144	 -0.342021130	 -0.000128879
H	 -3.255999144	 -4.127231130	 -0.000058879
H	 -7.450679144	 -1.496251130	 -0.000178879
H	 -5.451039144	 -5.289101130	 -0.000108879
H	 -7.550949144	 -3.972601130	 -0.000178879
