15
0  1  0  1  0  1   3  12  8.55274  9.45485  9.13687  8.23476  9.08151  8.51744 14.03196 14.02310 13.84641  9.42776 -16.03201 36.28386 -5.03327 -5.79083
O	 0.000000000	 0.000000000	 0.000000000
H	 0.259860000	 0.532640000	 0.754060000
H	 0.259850000	 0.532620000	 -0.754080000
Cl	 -2.032987100	 0.093944587	 1.173698012
C	 -3.533057100	 0.162954587	 2.039718012
C	 -4.086167100	 1.400594587	 2.359018012
C	 -4.166817100	 -1.021985413	 2.405628012
C	 -5.291667100	 1.447214587	 3.054978012
C	 -5.371787100	 -0.961155413	 3.101278012
C	 -5.936947100	 0.269924587	 3.427538012
H	 -3.576037100	 2.306194587	 2.064488012
H	 -3.718027100	 -1.969905413	 2.146548012
H	 -5.724847100	 2.405924587	 3.305038012
H	 -5.867427100	 -1.878595413	 3.387448012
H	 -6.872337100	 0.311474587	 3.967558012
