15
0  1  0  1  0  1   3  12 -0.26685 -0.19828 -0.16896 -0.23754 -0.18004 -0.21432  0.79580  0.79705  0.79458 -0.22089 -0.41238  1.47109 -0.29542 -0.98418
O	 2.602460000	 -0.120260000	 -1.502470000
H	 3.204540000	 0.412380000	 -0.979360000
H	 2.450460000	 0.412360000	 -2.285450000
Cl	 -0.298254928	 0.013782397	 0.172190574
C	 -2.030364928	 0.082792397	 0.172150574
C	 -2.669014928	 1.320432397	 0.172120574
C	 -2.762174928	 -1.102147603	 0.172160574
C	 -4.060984928	 1.367052397	 0.172090574
C	 -4.153524928	 -1.041317603	 0.172130574
C	 -4.806104928	 0.189762397	 0.172090574
H	 -2.079974928	 2.226032397	 0.172110574
H	 -2.243964928	 -2.050067603	 0.172190574
H	 -4.561174928	 2.325762397	 0.172060574
H	 -4.725854928	 -1.958757603	 0.172130574
H	 -5.886174928	 0.231312397	 0.172070574
