15
0  1  0  1  0  1   3  12  0.37505  0.55653  0.57509  0.39361  0.55801  0.45748  2.30004  2.30266  2.28964  0.48829 -2.05016  5.17438 -0.75249 -1.88344
O	 2.602460000	 -0.120260000	 -1.502470000
H	 3.204540000	 0.412380000	 -0.979360000
H	 2.450460000	 0.412360000	 -2.285450000
Cl	 0.024046730	 -0.001111202	 -0.013882823
C	 -1.708063270	 0.067898798	 -0.013922823
C	 -2.346713270	 1.305538798	 -0.013952823
C	 -2.439873270	 -1.117041202	 -0.013912823
C	 -3.738683270	 1.352158798	 -0.013982823
C	 -3.831223270	 -1.056211202	 -0.013942823
C	 -4.483803270	 0.174868798	 -0.013982823
H	 -1.757673270	 2.211138798	 -0.013962823
H	 -1.921663270	 -2.064961202	 -0.013882823
H	 -4.238873270	 2.310868798	 -0.014012823
H	 -4.403553270	 -1.973651202	 -0.013942823
H	 -5.563873270	 0.216418798	 -0.014002823
