15
0  1  0  1  0  1   3  12  1.05308  1.44253  1.38853  0.99907  1.35352  1.12279  4.04453  4.04340  3.98222  1.42559 -5.34299 11.51655 -1.62555 -3.12242
O	 0.000000000	 0.000000000	 0.000000000
H	 0.259860000	 0.532640000	 0.754060000
H	 0.259850000	 0.532620000	 -0.754080000
Cl	 -2.323413829	 0.107365242	 1.341369157
C	 -3.823483829	 0.176375242	 2.207389157
C	 -4.376593829	 1.414015242	 2.526689157
C	 -4.457243829	 -1.008564758	 2.573299157
C	 -5.582093829	 1.460635242	 3.222649157
C	 -5.662213829	 -0.947734758	 3.268949157
C	 -6.227373829	 0.283345242	 3.595209157
H	 -3.866463829	 2.319615242	 2.232159157
H	 -4.008453829	 -1.956484758	 2.314219157
H	 -6.015273829	 2.419345242	 3.472709157
H	 -6.157853829	 -1.865174758	 3.555119157
H	 -7.162763829	 0.324895242	 4.135229157
