15
0  1  0  1  0  1   3  12  8.55201  9.45406  9.13611  8.23406  9.08074  8.51672 14.03105 14.02219 13.84551  9.42703 -16.03072 36.28124 -5.03286 -5.79063
O	 0.000000000	 0.000000000	 0.000000000
H	 0.259860000	 0.532640000	 0.754060000
H	 0.259850000	 0.532620000	 -0.754080000
Cl	 -2.032966258	 0.093945428	 -1.173778836
C	 -3.532996258	 0.162955428	 -2.039868836
C	 -4.086066258	 1.400595428	 -2.359228836
C	 -4.166766258	 -1.021984572	 -2.405768836
C	 -5.291536258	 1.447215428	 -3.055238836
C	 -5.371696258	 -0.961154572	 -3.101468836
C	 -5.936826258	 0.269925428	 -3.427788836
H	 -3.575936258	 2.306195428	 -2.064708836
H	 -3.717996258	 -1.969904572	 -2.146638836
H	 -5.724696258	 2.405925428	 -3.305348836
H	 -5.867346258	 -1.878594572	 -3.387628836
H	 -6.872186258	 0.311475428	 -3.967848836
