15
0  1  0  1  0  1   3  12 -0.11236 -0.10205 -0.09086 -0.10117 -0.09586 -0.10070  0.25705  0.25685  0.25265 -0.09493  0.14441  0.11825 -0.06190 -0.29570
O	 2.602460000	 -0.120260000	 -1.502470000
H	 3.204540000	 0.412380000	 -0.979360000
H	 2.450460000	 0.412360000	 -2.285450000
Cl	 -0.942858246	 0.043569597	 0.544337369
C	 -2.674968246	 0.112579597	 0.544297369
C	 -3.313618246	 1.350219597	 0.544267369
C	 -3.406778246	 -1.072360403	 0.544307369
C	 -4.705588246	 1.396839597	 0.544237369
C	 -4.798128246	 -1.011530403	 0.544277369
C	 -5.450708246	 0.219549597	 0.544237369
H	 -2.724578246	 2.255819597	 0.544257369
H	 -2.888568246	 -2.020280403	 0.544337369
H	 -5.205778246	 2.355549597	 0.544207369
H	 -5.370458246	 -1.928970403	 0.544277369
H	 -6.530778246	 0.261099597	 0.544217369
