15
0  1  0  1  0  1   3  12 -0.74981 -0.68759 -0.65746 -0.71968 -0.66596 -0.69969  0.25867  0.26119  0.25484 -0.74526 -0.76402  1.32156 -0.30440 -0.99840
O	 5.017950000	 -0.261370000	 0.000100000
H	 5.277810000	 0.271270000	 0.754160000
H	 5.277800000	 0.271260000	 -0.753980000
Cl	 1.699104717	 -0.128551248	 0.000044778
C	 -0.033005283	 -0.059541248	 0.000004778
C	 -0.671665283	 1.178098752	 -0.000035222
C	 -0.764815283	 -1.244481248	 0.000004778
C	 -2.063635283	 1.224718752	 -0.000065221
C	 -2.156175283	 -1.183651248	 -0.000025222
C	 -2.808745283	 0.047438752	 -0.000055222
H	 -0.082615283	 2.083698752	 -0.000035222
H	 -0.246605283	 -2.192401248	 0.000034778
H	 -2.563815283	 2.183428752	 -0.000095222
H	 -2.728495283	 -2.101091248	 -0.000025222
H	 -3.888825283	 0.088988752	 -0.000085222
