15
0  1  0  1  0  1   3  12  1.17526  1.56953  1.52459  1.13033  1.50190  1.25626  4.20360  4.20412  4.13105  1.43283 -6.51965 13.12262 -1.93927 -3.23087
O	 5.017950000	 -0.261370000	 0.000100000
H	 5.277810000	 0.271270000	 0.754160000
H	 5.277800000	 0.271260000	 -0.753980000
Cl	 2.362873774	 -0.155114999	 0.000055823
C	 0.630763774	 -0.086104999	 0.000015823
C	 -0.007896226	 1.151535001	 -0.000024177
C	 -0.101046226	 -1.271044999	 0.000015823
C	 -1.399866226	 1.198155001	 -0.000054177
C	 -1.492406226	 -1.210214999	 -0.000014177
C	 -2.144976226	 0.020875001	 -0.000044177
H	 0.581153774	 2.057135001	 -0.000024177
H	 0.417163774	 -2.218964999	 0.000045823
H	 -1.900046226	 2.156865001	 -0.000084177
H	 -2.064726226	 -2.127654999	 -0.000014177
H	 -3.225056226	 0.062425001	 -0.000074177
