15
0  1  0  1  0  1   3  12 -0.56791 -0.51671 -0.51835 -0.56955 -0.52811 -0.55018  0.39872  0.39895  0.40344 -0.56466 -0.42249  1.03591 -0.30403 -0.87405
O	 2.507710000	 -1.515510000	 0.000040000
H	 3.083290000	 -1.372550000	 0.754130000
H	 3.083290000	 -1.372550000	 -0.754040000
Br	 -0.523283846	 0.316241472	 -0.000008347
C	 -2.404713846	 0.382611472	 -0.000048347
C	 -3.050133846	 1.617211472	 -0.000088347
C	 -3.133223846	 -0.804888528	 -0.000048347
C	 -4.442643846	 1.658051472	 -0.000118347
C	 -4.525213846	 -0.749968528	 -0.000078347
C	 -5.183463846	 0.478051472	 -0.000118347
H	 -2.469863846	 2.528591472	 -0.000088347
H	 -2.616573846	 -1.753778528	 -0.000018347
H	 -4.945703846	 2.615401472	 -0.000148347
H	 -5.092683846	 -1.670588528	 -0.000068347
H	 -6.263743846	 0.515121472	 -0.000138347
