15
0  1  0  1  0  1   3  12 12.84260 14.03841 13.42170 12.22580 13.36603 12.64436 19.42448 19.40532 19.25716 12.38199 -30.56268 61.30928 -10.58435 -7.78027
O	 5.049090000	 -0.189970000	 0.000090000
H	 5.476080000	 0.221620000	 0.754180000
H	 5.476080000	 0.221620000	 -0.753990000
Br	 2.779950988	 -0.144571573	 0.000059017
C	 0.898520988	 -0.078211573	 0.000019017
C	 0.253100988	 1.156398427	 -0.000020983
C	 0.170010988	 -1.265711573	 0.000019017
C	 -1.139409012	 1.197228427	 -0.000050983
C	 -1.221989012	 -1.210791573	 -0.000010983
C	 -1.880229012	 0.017228427	 -0.000050983
H	 0.833370988	 2.067768427	 -0.000020983
H	 0.686660988	 -2.214591573	 0.000049017
H	 -1.642469012	 2.154588427	 -0.000080983
H	 -1.789449012	 -2.131411573	 -0.000000983
H	 -2.960519012	 0.054298427	 -0.000070983
