15
0  1  0  1  0  1   3  12  1.04339  1.36073  1.26528  0.94793  1.24032  1.06701  3.91233  3.91019  3.90006  1.27216 -4.80419 10.49209 -1.62885 -2.78688
O	 2.537000000	 -0.058610000	 1.464790000
H	 2.529730000	 0.352990000	 2.331340000
H	 3.283820000	 0.352990000	 1.025220000
Br	 0.062247832	 -0.001438055	 0.035940087
C	 -1.819182168	 0.064931945	 0.035900087
C	 -2.464602168	 1.299531945	 0.035860087
C	 -2.547692168	 -1.122568055	 0.035900087
C	 -3.857112168	 1.340371945	 0.035830087
C	 -3.939682168	 -1.067648055	 0.035870087
C	 -4.597932168	 0.160371945	 0.035830087
H	 -1.884332168	 2.210911945	 0.035860087
H	 -2.031042168	 -2.071458055	 0.035930087
H	 -4.360172168	 2.297721945	 0.035800087
H	 -4.507152168	 -1.988268055	 0.035880087
H	 -5.678212168	 0.197441945	 0.035810087
