15
0  1  0  1  0  1   3  12 12.18470 13.36418 12.78036 11.60090 12.70633 12.01432 18.79071 18.77108 18.64566 12.33918 -25.46596 54.12565 -8.83399 -7.48652
O	 0.000000000	 0.000000000	 0.000000000
H	 0.426990000	 0.411590000	 0.754090000
H	 0.426990000	 0.411600000	 -0.754090000
Br	 -1.990908213	 0.045994139	 -1.149492488
C	 -3.620248213	 0.112354139	 -2.090242488
C	 -4.179178213	 1.346964139	 -2.412982488
C	 -4.251158213	 -1.075145861	 -2.454492488
C	 -5.385108213	 1.387804139	 -3.109262488
C	 -5.456638213	 -1.020215861	 -3.150512488
C	 -6.026678213	 0.207804139	 -3.479672488
H	 -3.676648213	 2.258334139	 -2.122852488
H	 -3.803738213	 -2.024025861	 -2.196142488
H	 -5.820758213	 2.345154139	 -3.360822488
H	 -5.948088213	 -1.940835861	 -3.434242488
H	 -6.962228213	 0.244864139	 -4.019832488
