15
0  1  0  1  0  1   3  12 -1.07466 -0.84739 -0.83138 -1.05865 -0.85342 -0.97489  1.12624  1.12687  1.12017 -1.05709 -4.30299  6.81142 -1.19724 -2.36828
O	 0.000000000	 0.000000000	 0.000000000
H	 0.426990000	 0.411590000	 0.754090000
H	 0.426990000	 0.411600000	 -0.754090000
Br	 -2.545443512	 1.538313879	 -0.000040602
C	 -4.141633512	 2.536493879	 -0.000090602
C	 -4.083273512	 3.928403879	 -0.000120602
C	 -5.366283512	 1.872343879	 -0.000080602
C	 -5.268803512	 4.660023879	 -0.000150602
C	 -6.544323512	 2.615903879	 -0.000110602
C	 -6.500373512	 4.008523879	 -0.000150602
H	 -3.125063512	 4.427543879	 -0.000130602
H	 -5.393293512	 0.792263879	 -0.000050602
H	 -5.225793512	 5.740653879	 -0.000180602
H	 -7.496073512	 2.102363879	 -0.000110602
H	 -7.417393512	 4.580773879	 -0.000170602
