15
0  1  0  1  0  1   3  12 -1.10967 -1.06104 -1.07488 -1.12350 -1.08623 -1.10461 -0.08583 -0.08658 -0.07908 -1.12979 -0.88826  1.19785 -0.40524 -1.03414
O	 0.000000000	 0.000000000	 0.000000000
H	 0.426990000	 0.411590000	 0.754090000
H	 0.426990000	 0.411600000	 -0.754090000
Br	 -2.964584634	 -1.633425694	 -0.000046208
C	 -4.627134634	 -2.516665694	 -0.000096208
C	 -5.803384634	 -1.770175694	 -0.000126208
C	 -4.664294634	 -3.909325694	 -0.000086208
C	 -7.029754634	 -2.431065694	 -0.000156208
C	 -5.897254634	 -4.557755694	 -0.000116208
C	 -7.081324634	 -3.823385694	 -0.000156208
H	 -5.756544634	 -0.690765694	 -0.000136208
H	 -3.742414634	 -4.472755694	 -0.000056208
H	 -7.944094634	 -1.853505694	 -0.000186208
H	 -5.928384634	 -5.638775694	 -0.000116208
H	 -8.035414634	 -4.331425694	 -0.000176208
