15
0  1  0  1  0  1   3  12 -0.32307 -0.30704 -0.30546 -0.32149 -0.31248 -0.31636  0.23859  0.23810  0.24125 -0.30558  0.00420  0.29694 -0.14219 -0.46453
O	 2.537000000	 -0.058610000	 1.464790000
H	 2.529730000	 0.352990000	 2.331340000
H	 3.283820000	 0.352990000	 1.025220000
Br	 -0.865784231	 0.020001424	 -0.499878630
C	 -2.747214231	 0.086371424	 -0.499918630
C	 -3.392634231	 1.320971424	 -0.499958630
C	 -3.475724231	 -1.101128576	 -0.499918630
C	 -4.785144231	 1.361811424	 -0.499988630
C	 -4.867714231	 -1.046208576	 -0.499948630
C	 -5.525964231	 0.181811424	 -0.499988630
H	 -2.812364231	 2.232351424	 -0.499958630
H	 -2.959074231	 -2.050018576	 -0.499888630
H	 -5.288204231	 2.319161424	 -0.500018630
H	 -5.435184231	 -1.966828576	 -0.499938630
H	 -6.606244231	 0.218881424	 -0.500008630
