15
0  1  0  1  0  1   3  12  1.04701  1.36671  1.29131  0.97162  1.26556  1.09125  3.83216  3.82975  3.81938  1.25358 -4.91690 10.51360 -1.53809 -2.80503
O	 2.566320000	 1.413990000	 0.000040000
H	 2.730310000	 1.983940000	 0.754130000
H	 2.730300000	 1.983940000	 -0.754040000
Br	 0.059148543	 0.032589642	 0.000000922
C	 -1.822281457	 0.098959642	 -0.000039078
C	 -2.467701457	 1.333559642	 -0.000079078
C	 -2.550791457	 -1.088540358	 -0.000039078
C	 -3.860211457	 1.374399642	 -0.000109078
C	 -3.942781457	 -1.033620358	 -0.000069078
C	 -4.601031457	 0.194399642	 -0.000109078
H	 -1.887431457	 2.244939642	 -0.000079078
H	 -2.034141457	 -2.037430358	 -0.000009078
H	 -4.363271457	 2.331749642	 -0.000139078
H	 -4.510251457	 -1.954240358	 -0.000059078
H	 -5.681311457	 0.231469642	 -0.000129078
