15
0  1  0  1  0  1   3  12 -1.15689 -1.10313 -1.07003 -1.12379 -1.07930 -1.10077 -0.16182 -0.15920 -0.14911 -1.16985 -1.10773  1.27088 -0.31841 -1.01458
O	 0.000000000	 0.000000000	 0.000000000
H	 0.426990000	 0.411590000	 0.754090000
H	 0.426990000	 0.411600000	 -0.754090000
Br	 -2.969684098	 1.794699525	 -0.000047369
C	 -4.565874098	 2.792879525	 -0.000097369
C	 -4.507514098	 4.184789525	 -0.000127369
C	 -5.790524098	 2.128729525	 -0.000087369
C	 -5.693044098	 4.916409525	 -0.000157369
C	 -6.968564098	 2.872289525	 -0.000117369
C	 -6.924614098	 4.264909525	 -0.000157369
H	 -3.549304098	 4.683929525	 -0.000137369
H	 -5.817534098	 1.048649525	 -0.000057369
H	 -5.650034098	 5.997039525	 -0.000187369
H	 -7.920314098	 2.358749525	 -0.000117369
H	 -7.841634098	 4.837159525	 -0.000177369
