15
0  1  0  1  0  1   3  12 -0.45889 -0.43157 -0.42530 -0.45262 -0.43462 -0.44322  0.24054  0.23909  0.24336 -0.44844 -0.17003  0.53738 -0.19400 -0.62179
O	 2.566320000	 1.413990000	 0.000040000
H	 2.730310000	 1.983940000	 0.754130000
H	 2.730300000	 1.983940000	 -0.754040000
Br	 -0.724342537	 -0.399097971	 -0.000011290
C	 -2.605772537	 -0.332727971	 -0.000051290
C	 -3.251192537	 0.901872029	 -0.000091290
C	 -3.334282537	 -1.520227971	 -0.000051290
C	 -4.643702537	 0.942712029	 -0.000121290
C	 -4.726272537	 -1.465307971	 -0.000081290
C	 -5.384522537	 -0.237287971	 -0.000121290
H	 -2.670922537	 1.813252029	 -0.000091290
H	 -2.817632537	 -2.469117971	 -0.000021290
H	 -5.146762537	 1.900062029	 -0.000151290
H	 -5.293742537	 -2.385927971	 -0.000071290
H	 -6.464802537	 -0.200217971	 -0.000141290
