15
0  1  0  1  0  1   3  12 -1.23090 -1.09374 -1.13775 -1.27491 -1.15367 -1.22365  0.48004  0.47899  0.47924 -1.22072 -2.26742  3.74541 -0.88944 -1.80927
O	 0.000000000	 0.000000000	 0.000000000
H	 0.426990000	 0.411590000	 0.754090000
H	 0.426990000	 0.411600000	 -0.754090000
Br	 -2.682243241	 -1.477861342	 -0.000041807
C	 -4.344793241	 -2.361101342	 -0.000091807
C	 -5.521043241	 -1.614611342	 -0.000121807
C	 -4.381953241	 -3.753761342	 -0.000081807
C	 -6.747413241	 -2.275501342	 -0.000151807
C	 -5.614913241	 -4.402191342	 -0.000111807
C	 -6.798983241	 -3.667821342	 -0.000151807
H	 -5.474203241	 -0.535201342	 -0.000131807
H	 -3.460073241	 -4.317191342	 -0.000051807
H	 -7.661753241	 -1.697941342	 -0.000181807
H	 -5.646043241	 -5.483211342	 -0.000111807
H	 -7.753073241	 -4.175861342	 -0.000171807
