15
0  1  0  1  0  1   3  12 -0.48725 -0.35452 -0.37608 -0.50881 -0.39149 -0.45800  1.18638  1.18658  1.18969 -0.45626 -1.59002  3.41316 -0.69036 -1.58903
O	 2.507710000	 -1.515510000	 0.000040000
H	 3.083290000	 -1.372550000	 0.754130000
H	 3.083290000	 -1.372550000	 -0.754040000
Br	 -0.220184461	 0.133066325	 -0.000003512
C	 -2.101614461	 0.199436325	 -0.000043512
C	 -2.747034461	 1.434036325	 -0.000083512
C	 -2.830124461	 -0.988063675	 -0.000043512
C	 -4.139544461	 1.474876325	 -0.000113512
C	 -4.222114461	 -0.933143675	 -0.000073512
C	 -4.880364461	 0.294876325	 -0.000113512
H	 -2.166764461	 2.345416325	 -0.000083512
H	 -2.313474461	 -1.936953675	 -0.000013512
H	 -4.642604461	 2.432226325	 -0.000143512
H	 -4.789584461	 -1.853763675	 -0.000063512
H	 -5.960644461	 0.331946325	 -0.000133512
