15
0  1  0  1  0  1   3  12 -0.52349 -0.44377 -0.44812 -0.52784 -0.46160 -0.49727  0.69516  0.69490  0.70114 -0.48622 -0.71956  1.77390 -0.43119 -1.10936
O	 2.537040000	 -0.058610000	 -1.464710000
H	 3.283860000	 0.352990000	 -1.025140000
H	 2.529780000	 0.352990000	 -2.331260000
Br	 -0.401870942	 0.009283912	 0.232012261
C	 -2.283300942	 0.075653912	 0.231972261
C	 -2.928720942	 1.310253912	 0.231932261
C	 -3.011810942	 -1.111846088	 0.231972261
C	 -4.321230942	 1.351093912	 0.231902261
C	 -4.403800942	 -1.056926088	 0.231942261
C	 -5.062050942	 0.171093912	 0.231902261
H	 -2.348450942	 2.221633912	 0.231932261
H	 -2.495160942	 -2.060736088	 0.232002261
H	 -4.824290942	 2.308443912	 0.231872261
H	 -4.971270942	 -1.977546088	 0.231952261
H	 -6.142330942	 0.208163912	 0.231882261
