15
0  1  0  1  0  1   3  12 -0.93748 -0.91214 -0.92104 -0.94638 -0.93073 -0.93637 -0.13714 -0.13796 -0.12988 -0.95548 -0.55853  0.67512 -0.28358 -0.78849
O	 0.000000000	 0.000000000	 0.000000000
H	 0.426990000	 0.411590000	 0.754090000
H	 0.426990000	 0.411600000	 -0.754090000
Br	 -3.105755331	 -1.711207870	 -0.000048408
C	 -4.768305331	 -2.594447870	 -0.000098408
C	 -5.944555331	 -1.847957870	 -0.000128408
C	 -4.805465331	 -3.987107870	 -0.000088408
C	 -7.170925331	 -2.508847870	 -0.000158408
C	 -6.038425331	 -4.635537870	 -0.000118408
C	 -7.222495331	 -3.901167870	 -0.000158408
H	 -5.897715331	 -0.768547870	 -0.000138408
H	 -3.883585331	 -4.550537870	 -0.000058408
H	 -8.085265331	 -1.931287870	 -0.000188408
H	 -6.069555331	 -5.716557870	 -0.000118408
H	 -8.176585331	 -4.409207870	 -0.000178408
