15
0  1  0  1  0  1   3  12 -0.41624 -0.38741 -0.38548 -0.41431 -0.39418 -0.40388  0.30335  0.30292  0.30750 -0.39386 -0.11621  0.53829 -0.20080 -0.61513
O	 2.537040000	 -0.058610000	 -1.464710000
H	 3.283860000	 0.352990000	 -1.025140000
H	 2.529780000	 0.352990000	 -2.331260000
Br	 -0.711229988	 0.016430639	 0.410614604
C	 -2.592659988	 0.082800639	 0.410574604
C	 -3.238079988	 1.317400639	 0.410534604
C	 -3.321169988	 -1.104699361	 0.410574604
C	 -4.630589988	 1.358240639	 0.410504604
C	 -4.713159988	 -1.049779361	 0.410544604
C	 -5.371409988	 0.178240639	 0.410504604
H	 -2.657809988	 2.228780639	 0.410534604
H	 -2.804519988	 -2.053589361	 0.410604604
H	 -5.133649988	 2.315590639	 0.410474604
H	 -5.280629988	 -1.970399361	 0.410554604
H	 -6.451689988	 0.215310639	 0.410484604
