15
0  1  0  1  0  1   3  12 11.76210 12.97377 12.50506 11.29340 12.43406 11.71683 18.40029 18.37653 18.23960 11.08344 -30.81491 59.26147 -9.76930 -7.59382
O	 0.000000000	 0.000000000	 0.000000000
H	 0.426990000	 0.411590000	 0.754090000
H	 0.426990000	 0.411600000	 -0.754090000
Br	 -1.979789399	 1.196466350	 -0.000031579
C	 -3.575979399	 2.194646350	 -0.000081579
C	 -3.517619399	 3.586556350	 -0.000111579
C	 -4.800629399	 1.530496350	 -0.000071579
C	 -4.703149399	 4.318176350	 -0.000141579
C	 -5.978669399	 2.274056350	 -0.000101579
C	 -5.934719399	 3.666676350	 -0.000141579
H	 -2.559409399	 4.085696350	 -0.000121579
H	 -4.827639399	 0.450416350	 -0.000041579
H	 -4.660139399	 5.398806350	 -0.000171579
H	 -6.930419399	 1.760516350	 -0.000101579
H	 -6.851739399	 4.238926350	 -0.000161579
