15
0  1  0  1  0  1   3  12 -1.31614 -1.17263 -1.14087 -1.28438 -1.15703 -1.22947  0.36453  0.36668  0.36950 -1.32785 -2.69860  3.90734 -0.75518 -1.78139
O	 0.000000000	 0.000000000	 0.000000000
H	 0.426990000	 0.411590000	 0.754090000
H	 0.426990000	 0.411600000	 -0.754090000
Br	 -2.686857041	 1.623775761	 -0.000042858
C	 -4.283047041	 2.621955761	 -0.000092858
C	 -4.224687041	 4.013865761	 -0.000122858
C	 -5.507697041	 1.957805761	 -0.000082858
C	 -5.410217041	 4.745485761	 -0.000152858
C	 -6.685737041	 2.701365761	 -0.000112858
C	 -6.641787041	 4.093985761	 -0.000152858
H	 -3.266477041	 4.513005761	 -0.000132858
H	 -5.534707041	 0.877725761	 -0.000052858
H	 -5.367207041	 5.826115761	 -0.000182858
H	 -7.637487041	 2.187825761	 -0.000112858
H	 -7.558807041	 4.666235761	 -0.000172858
