15
0  1  0  1  0  1   3  12 -0.99679 -0.77300 -0.81393 -1.03773 -0.83270 -0.95507  1.25097  1.24918  1.24009 -0.97240 -4.19097  7.03583 -1.38764 -2.42962
O	 5.049090000	 -0.189970000	 0.000090000
H	 5.476080000	 0.221620000	 0.754180000
H	 5.476080000	 0.221620000	 -0.753990000
Br	 2.131625556	 -0.131600594	 0.000050164
C	 0.250195556	 -0.065240594	 0.000010164
C	 -0.395224444	 1.169369406	 -0.000029836
C	 -0.478314444	 -1.252740594	 0.000010164
C	 -1.787734444	 1.210199406	 -0.000059836
C	 -1.870314444	 -1.197820594	 -0.000019836
C	 -2.528554444	 0.030199406	 -0.000059836
H	 0.185045556	 2.080739406	 -0.000029836
H	 0.038335556	 -2.201620594	 0.000040164
H	 -2.290794444	 2.167559406	 -0.000089836
H	 -2.437774444	 -2.118440594	 -0.000009836
H	 -3.608844444	 0.067269406	 -0.000079836
