15
0  1  0  1  0  1   3  12 13.14920 14.32025 13.62184 12.45070 13.56685 12.86391 19.65565 19.64134 19.50460 13.11106 -27.93252 59.08512 -10.27550 -7.76604
O	 0.000000000	 0.000000000	 0.000000000
H	 0.426990000	 0.411590000	 0.754090000
H	 0.426990000	 0.411600000	 -0.754090000
Br	 -1.976389756	 -1.088950463	 -0.000030805
C	 -3.638939756	 -1.972190463	 -0.000080805
C	 -4.815189756	 -1.225700463	 -0.000110805
C	 -3.676099756	 -3.364850463	 -0.000070805
C	 -6.041559756	 -1.886590463	 -0.000140805
C	 -4.909059756	 -4.013280463	 -0.000100805
C	 -6.093129756	 -3.278910463	 -0.000140805
H	 -4.768349756	 -0.146290463	 -0.000120805
H	 -2.754219756	 -3.928280463	 -0.000040805
H	 -6.955899756	 -1.309030463	 -0.000170805
H	 -4.940189756	 -5.094300463	 -0.000100805
H	 -7.047219756	 -3.786950463	 -0.000160805
