15
0  1  0  1  0  1   3  12 -0.59988 -0.51680 -0.52441 -0.60749 -0.53673 -0.57567  0.66657  0.66691  0.67158 -0.59167 -0.84457  1.88200 -0.45305 -1.17604
O	 2.507710000	 -1.515510000	 0.000040000
H	 3.083290000	 -1.372550000	 0.754130000
H	 3.083290000	 -1.372550000	 -0.754040000
Br	 -0.371734153	 0.224653898	 -0.000005929
C	 -2.253164153	 0.291023898	 -0.000045929
C	 -2.898584153	 1.525623898	 -0.000085929
C	 -2.981674153	 -0.896476102	 -0.000045929
C	 -4.291094153	 1.566463898	 -0.000115929
C	 -4.373664153	 -0.841556102	 -0.000075929
C	 -5.031914153	 0.386463898	 -0.000115929
H	 -2.318314153	 2.437003898	 -0.000085929
H	 -2.465024153	 -1.845366102	 -0.000015929
H	 -4.794154153	 2.523813898	 -0.000145929
H	 -4.941134153	 -1.762176102	 -0.000065929
H	 -6.112194153	 0.423533898	 -0.000135929
