15
0  1  0  1  0  1   3  12 -1.28924 -1.14840 -1.16007 -1.30092 -1.17497 -1.24729  0.43551  0.43501  0.43619 -1.30981 -2.61744  4.03477 -0.89651 -1.83062
O	 5.049090000	 -0.189970000	 0.000090000
H	 5.476080000	 0.221620000	 0.754180000
H	 5.476080000	 0.221620000	 -0.753990000
Br	 1.969544198	 -0.128357849	 0.000047951
C	 0.088114198	 -0.061997849	 0.000007951
C	 -0.557305802	 1.172612151	 -0.000032049
C	 -0.640395802	 -1.249497849	 0.000007951
C	 -1.949815802	 1.213442151	 -0.000062049
C	 -2.032395802	 -1.194577849	 -0.000022049
C	 -2.690635802	 0.033442151	 -0.000062049
H	 0.022964198	 2.083982151	 -0.000032049
H	 -0.123745802	 -2.198377849	 0.000037951
H	 -2.452875802	 2.170802151	 -0.000092049
H	 -2.599855802	 -2.115197849	 -0.000012049
H	 -3.770925802	 0.070512151	 -0.000082049
