15
0  1  0  1  0  1   3  12 -0.91806 -0.69037 -0.73587 -0.96356 -0.76445 -0.88259  1.25848  1.25635  1.24917 -0.80640 -3.29643  5.87391 -1.09449 -2.28939
O	 0.000000000	 0.000000000	 0.000000000
H	 0.426990000	 0.411590000	 0.754090000
H	 0.426990000	 0.411600000	 -0.754090000
Br	 -2.559739131	 0.059135321	 -1.477918913
C	 -4.189079131	 0.125495321	 -2.418668913
C	 -4.748009131	 1.360105321	 -2.741408913
C	 -4.819989131	 -1.062004679	 -2.782918913
C	 -5.953939131	 1.400945321	 -3.437688913
C	 -6.025469131	 -1.007074679	 -3.478938913
C	 -6.595509131	 0.220945321	 -3.808098913
H	 -4.245479131	 2.271475321	 -2.451278913
H	 -4.372569131	 -2.010884679	 -2.524568913
H	 -6.389589131	 2.358295321	 -3.689248913
H	 -6.516919131	 -1.927694679	 -3.762668913
H	 -7.531059131	 0.258005321	 -4.348258913
