15
0  1  0  1  0  1   3  12 -0.56798 -0.48870 -0.48508 -0.56436 -0.49971 -0.53470  0.61552  0.61397  0.61963 -0.54825 -0.78816  1.77564 -0.41324 -1.12249
O	 2.566320000	 1.413990000	 0.000040000
H	 2.730310000	 1.983940000	 0.754130000
H	 2.730300000	 1.983940000	 -0.754040000
Br	 -0.410946105	 -0.226422926	 -0.000006405
C	 -2.292376105	 -0.160052926	 -0.000046405
C	 -2.937796105	 1.074547074	 -0.000086405
C	 -3.020886105	 -1.347552926	 -0.000046405
C	 -4.330306105	 1.115387074	 -0.000116405
C	 -4.412876105	 -1.292632926	 -0.000076405
C	 -5.071126105	 -0.064612926	 -0.000116405
H	 -2.357526105	 1.985927074	 -0.000086405
H	 -2.504236105	 -2.296442926	 -0.000016405
H	 -4.833366105	 2.072737074	 -0.000146405
H	 -4.980346105	 -2.213252926	 -0.000066405
H	 -6.151406105	 -0.027542926	 -0.000136405
