15
0  1  0  1  0  1   3  12 -0.48004 -0.44937 -0.44915 -0.47982 -0.45674 -0.46862  0.26459  0.26464  0.26812 -0.47612 -0.18402  0.56976 -0.20852 -0.65334
O	 2.507710000	 -1.515510000	 0.000040000
H	 3.083290000	 -1.372550000	 0.754130000
H	 3.083290000	 -1.372550000	 -0.754040000
Br	 -0.674833538	 0.407829045	 -0.000010764
C	 -2.556263538	 0.474199045	 -0.000050764
C	 -3.201683538	 1.708799045	 -0.000090764
C	 -3.284773538	 -0.713300955	 -0.000050764
C	 -4.594193538	 1.749639045	 -0.000120764
C	 -4.676763538	 -0.658380955	 -0.000080764
C	 -5.335013538	 0.569639045	 -0.000120764
H	 -2.621413538	 2.620179045	 -0.000090764
H	 -2.768123538	 -1.662190955	 -0.000020764
H	 -5.097253538	 2.706989045	 -0.000150764
H	 -5.244233538	 -1.579000955	 -0.000070764
H	 -6.415293538	 0.606709045	 -0.000140764
