15
0  1  0  1  0  1   3  12  7.76298  8.53795  8.21718  7.44221  8.17685  7.72455 12.85262 12.84600 12.78063  8.17708 -15.71507 33.54539 -4.39124 -5.26200
O	 2.566320000	 1.413990000	 0.000040000
H	 2.730310000	 1.983940000	 0.754130000
H	 2.730300000	 1.983940000	 -0.754040000
Br	 0.372544975	 0.205264686	 0.000005807
C	 -1.508885025	 0.271634686	 -0.000034193
C	 -2.154305025	 1.506234686	 -0.000074193
C	 -2.237395025	 -0.915865314	 -0.000034193
C	 -3.546815025	 1.547074686	 -0.000104193
C	 -3.629385025	 -0.860945314	 -0.000064193
C	 -4.287635025	 0.367074686	 -0.000104193
H	 -1.574035025	 2.417614686	 -0.000074193
H	 -1.720745025	 -1.864755314	 -0.000004193
H	 -4.049875025	 2.504424686	 -0.000134193
H	 -4.196855025	 -1.781565314	 -0.000054193
H	 -5.367915025	 0.404144686	 -0.000124193
