15
0  1  0  1  0  1   3  12 -0.37968 -0.36227 -0.36201 -0.37942 -0.36788 -0.37362  0.19956  0.19949  0.20169 -0.37549 -0.04971  0.31360 -0.14633 -0.49304
O	 2.507710000	 -1.515510000	 0.000040000
H	 3.083290000	 -1.372550000	 0.754130000
H	 3.083290000	 -1.372550000	 -0.754040000
Br	 -0.826383230	 0.499416619	 -0.000013181
C	 -2.707813230	 0.565786619	 -0.000053181
C	 -3.353233230	 1.800386619	 -0.000093181
C	 -3.436323230	 -0.621713381	 -0.000053181
C	 -4.745743230	 1.841226619	 -0.000123181
C	 -4.828313230	 -0.566793381	 -0.000083181
C	 -5.486563230	 0.661226619	 -0.000123181
H	 -2.772963230	 2.711766619	 -0.000093181
H	 -2.919673230	 -1.570603381	 -0.000023181
H	 -5.248803230	 2.798576619	 -0.000153181
H	 -5.395783230	 -1.487413381	 -0.000073181
H	 -6.566843230	 0.698296619	 -0.000143181
