15
0  1  0  1  0  1   3  12 -1.15974 -1.10969 -1.10216 -1.15221 -1.11217 -1.13152 -0.12864 -0.12840 -0.11941 -1.19240 -1.05633  1.31122 -0.39997 -1.04732
O	 5.049090000	 -0.189970000	 0.000090000
H	 5.476080000	 0.221620000	 0.754180000
H	 5.476080000	 0.221620000	 -0.753990000
Br	 1.645381483	 -0.121872360	 0.000043525
C	 -0.236048517	 -0.055512360	 0.000003525
C	 -0.881468517	 1.179097640	 -0.000036475
C	 -0.964558517	 -1.243012360	 0.000003525
C	 -2.273978517	 1.219927640	 -0.000066475
C	 -2.356558517	 -1.188092360	 -0.000026475
C	 -3.014798517	 0.039927640	 -0.000066475
H	 -0.301198517	 2.090467640	 -0.000036475
H	 -0.447908517	 -2.191892360	 0.000033525
H	 -2.777038517	 2.177287640	 -0.000096475
H	 -2.924018517	 -2.108712360	 -0.000016475
H	 -4.095088517	 0.076997640	 -0.000086475
