15
0  1  0  1  0  1   3  12 -0.44948 -0.32166 -0.32762 -0.45544 -0.34546 -0.40722  1.11221  1.11059  1.11490 -0.40595 -1.48672  3.22347 -0.62374 -1.51896
O	 2.566320000	 1.413990000	 0.000040000
H	 2.730310000	 1.983940000	 0.754130000
H	 2.730300000	 1.983940000	 -0.754040000
Br	 -0.254247889	 -0.140085403	 -0.000003963
C	 -2.135677889	 -0.073715403	 -0.000043963
C	 -2.781097889	 1.160884597	 -0.000083963
C	 -2.864187889	 -1.261215403	 -0.000043963
C	 -4.173607889	 1.201724597	 -0.000113963
C	 -4.256177889	 -1.206295403	 -0.000073963
C	 -4.914427889	 0.021724597	 -0.000113963
H	 -2.200827889	 2.072264597	 -0.000083963
H	 -2.347537889	 -2.210105403	 -0.000013963
H	 -4.676667889	 2.159074597	 -0.000143963
H	 -4.823647889	 -2.126915403	 -0.000063963
H	 -5.994707889	 0.058794597	 -0.000133963
