15
0  1  0  1  0  1   3  12  1.66118  2.19217  2.00499  1.47400  1.95807  1.65935  5.45250  5.44408  5.39936  2.02163 -8.98772 18.05138 -2.93738 -4.10465
O	 0.000000000	 0.000000000	 0.000000000
H	 0.426990000	 0.411590000	 0.754090000
H	 0.426990000	 0.411600000	 -0.754090000
Br	 -2.275323672	 0.052564730	 -1.313705700
C	 -3.904663672	 0.118924730	 -2.254455700
C	 -4.463593672	 1.353534730	 -2.577195700
C	 -4.535573672	 -1.068575270	 -2.618705700
C	 -5.669523672	 1.394374730	 -3.273475700
C	 -5.741053672	 -1.013645270	 -3.314725700
C	 -6.311093672	 0.214374730	 -3.643885700
H	 -3.961063672	 2.264904730	 -2.287065700
H	 -4.088153672	 -2.017455270	 -2.360355700
H	 -6.105173672	 2.351724730	 -3.525035700
H	 -6.232503672	 -1.934265270	 -3.598455700
H	 -7.246643672	 0.251434730	 -4.184045700
