15
0  1  0  1  0  1   3  12  7.81039  8.61042  8.22881  7.42878  8.18542  7.71830 13.25301 13.24313 13.17275  8.23810 -16.56433 35.23376 -4.98040 -5.45093
O	 2.507710000	 -1.515510000	 0.000040000
H	 3.083290000	 -1.372550000	 0.754130000
H	 3.083290000	 -1.372550000	 -0.754040000
Br	 0.386014308	 -0.233283970	 0.000006157
C	 -1.495415692	 -0.166913970	 -0.000033843
C	 -2.140835692	 1.067686030	 -0.000073843
C	 -2.223925692	 -1.354413970	 -0.000033843
C	 -3.533345692	 1.108526030	 -0.000103843
C	 -3.615915692	 -1.299493970	 -0.000063843
C	 -4.274165692	 -0.071473970	 -0.000103843
H	 -1.560565692	 1.979066030	 -0.000073843
H	 -1.707275692	 -2.303303970	 -0.000003843
H	 -4.036405692	 2.065876030	 -0.000133843
H	 -4.183385692	 -2.220113970	 -0.000053843
H	 -5.354445692	 -0.034403970	 -0.000123843
