15
0  1  0  1  0  1   3  12  1.01195  1.34283  1.23640  0.90552  1.21209  1.02952  3.99874  3.99684  3.98421  1.21635 -5.22573 11.09240 -1.73130 -2.91903
O	 2.507710000	 -1.515510000	 0.000040000
H	 3.083290000	 -1.372550000	 0.754130000
H	 3.083290000	 -1.372550000	 -0.754040000
Br	 0.082914923	 -0.050108823	 0.000001323
C	 -1.798515077	 0.016261177	 -0.000038677
C	 -2.443935077	 1.250861177	 -0.000078677
C	 -2.527025077	 -1.171238823	 -0.000038677
C	 -3.836445077	 1.291701177	 -0.000108677
C	 -3.919015077	 -1.116318823	 -0.000068677
C	 -4.577265077	 0.111701177	 -0.000108677
H	 -1.863665077	 2.162241177	 -0.000078677
H	 -2.010375077	 -2.120128823	 -0.000008677
H	 -4.339505077	 2.249051177	 -0.000138677
H	 -4.486485077	 -2.036938823	 -0.000058677
H	 -5.657545077	 0.148771177	 -0.000128677
