15
0  1  0  1  0  1   3  12 -0.98186 -0.95045 -0.92210 -0.95351 -0.92946 -0.93914 -0.20892 -0.20673 -0.19673 -0.98723 -0.72692  0.72268 -0.21289 -0.77010
O	 0.000000000	 0.000000000	 0.000000000
H	 0.426990000	 0.411590000	 0.754090000
H	 0.426990000	 0.411600000	 -0.754090000
Br	 -3.111097626	 1.880161408	 -0.000049625
C	 -4.707287626	 2.878341408	 -0.000099625
C	 -4.648927626	 4.270251408	 -0.000129625
C	 -5.931937626	 2.214191408	 -0.000089625
C	 -5.834457626	 5.001871408	 -0.000159625
C	 -7.109977626	 2.957751408	 -0.000119625
C	 -7.066027626	 4.350371408	 -0.000159625
H	 -3.690717626	 4.769391408	 -0.000139625
H	 -5.958947626	 1.134111408	 -0.000059625
H	 -5.791447626	 6.082501408	 -0.000189625
H	 -8.061727626	 2.444211408	 -0.000119625
H	 -7.983047626	 4.922621408	 -0.000179625
