15
0  1  0  1  0  1   3  12 -0.49711 -0.44824 -0.44757 -0.49643 -0.45834 -0.47792  0.43495  0.43463  0.44042 -0.46958 -0.33288  0.97765 -0.29085 -0.82350
O	 2.537000000	 -0.058610000	 1.464790000
H	 2.529730000	 0.352990000	 2.331340000
H	 3.283820000	 0.352990000	 1.025220000
Br	 -0.556440210	 0.012854931	 -0.321272391
C	 -2.437870210	 0.079224931	 -0.321312391
C	 -3.083290210	 1.313824931	 -0.321352391
C	 -3.166380210	 -1.108275069	 -0.321312391
C	 -4.475800210	 1.354664931	 -0.321382391
C	 -4.558370210	 -1.053355069	 -0.321342391
C	 -5.216620210	 0.174664931	 -0.321382391
H	 -2.503020210	 2.225204931	 -0.321352391
H	 -2.649730210	 -2.057165069	 -0.321282391
H	 -4.978860210	 2.312014931	 -0.321412391
H	 -5.125840210	 -1.973975069	 -0.321332391
H	 -6.296900210	 0.211734931	 -0.321402391
