15
0  1  0  1  0  1   3  12 -1.15237 -1.05858 -1.06393 -1.15773 -1.08100 -1.12348  0.11796  0.11808  0.12252 -1.13139 -1.26067  1.87419 -0.45288 -1.29204
O	 0.000000000	 0.000000000	 0.000000000
H	 0.426990000	 0.411590000	 0.754090000
H	 0.426990000	 0.411600000	 -0.754090000
Br	 -2.844154590	 0.065705913	 -1.642132125
C	 -4.473494590	 0.132065913	 -2.582882125
C	 -5.032424590	 1.366675913	 -2.905622125
C	 -5.104404590	 -1.055434087	 -2.947132125
C	 -6.238354590	 1.407515913	 -3.601902125
C	 -6.309884590	 -1.000504087	 -3.643152125
C	 -6.879924590	 0.227515913	 -3.972312125
H	 -4.529894590	 2.278045913	 -2.615492125
H	 -4.656984590	 -2.004314087	 -2.688782125
H	 -6.674004590	 2.364865913	 -3.853462125
H	 -6.801334590	 -1.921124087	 -3.926882125
H	 -7.815474590	 0.264575913	 -4.512472125
