15
0  1  0  1  0  1   3  12 -0.49698 -0.44821 -0.44754 -0.49631 -0.45835 -0.47785  0.43485  0.43453  0.44032 -0.46954 -0.33270  0.97729 -0.29078 -0.82335
O	 2.537040000	 -0.058610000	 -1.464710000
H	 3.283860000	 0.352990000	 -1.025140000
H	 2.529780000	 0.352990000	 -2.331260000
Br	 -0.556550465	 0.012857276	 0.321313433
C	 -2.437980465	 0.079227276	 0.321273433
C	 -3.083400465	 1.313827276	 0.321233433
C	 -3.166490465	 -1.108272724	 0.321273433
C	 -4.475910465	 1.354667276	 0.321203433
C	 -4.558480465	 -1.053352724	 0.321243433
C	 -5.216730465	 0.174667276	 0.321203433
H	 -2.503130465	 2.225207276	 0.321233433
H	 -2.649840465	 -2.057162724	 0.321303433
H	 -4.978970465	 2.312017276	 0.321173433
H	 -5.125950465	 -1.973972724	 0.321253433
H	 -6.297010465	 0.211737276	 0.321183433
