15
0  1  0  1  0  1   3  12 -1.02626 -0.96801 -0.96787 -1.02611 -0.98114 -1.00448 -0.04736 -0.04701 -0.04070 -1.01663 -0.79128  1.05341 -0.30299 -0.97577
O	 0.000000000	 0.000000000	 0.000000000
H	 0.426990000	 0.411590000	 0.754090000
H	 0.426990000	 0.411600000	 -0.754090000
Br	 -2.986362319	 0.068991208	 -1.724238732
C	 -4.615702320	 0.135351208	 -2.664988732
C	 -5.174632320	 1.369961208	 -2.987728732
C	 -5.246612320	 -1.052148792	 -3.029238732
C	 -6.380562319	 1.410801208	 -3.684008732
C	 -6.452092320	 -0.997218792	 -3.725258732
C	 -7.022132320	 0.230801208	 -4.054418732
H	 -4.672102320	 2.281331208	 -2.697598732
H	 -4.799192319	 -2.001028792	 -2.770888732
H	 -6.816212319	 2.368151208	 -3.935568732
H	 -6.943542320	 -1.917838792	 -4.008988732
H	 -7.957682319	 0.267861208	 -4.594578732
