15
0  1  0  1  0  1   3  12 -1.16568 -1.01844 -1.03688 -1.18412 -1.05898 -1.13116  0.49294  0.49233  0.49271 -1.11530 -2.02782  3.32444 -0.69498 -1.71694
O	 0.000000000	 0.000000000	 0.000000000
H	 0.426990000	 0.411590000	 0.754090000
H	 0.426990000	 0.411600000	 -0.754090000
Br	 -2.701946861	 0.062420617	 -1.560025519
C	 -4.331286861	 0.128780617	 -2.500775519
C	 -4.890216861	 1.363390617	 -2.823515519
C	 -4.962196861	 -1.058719383	 -2.865025519
C	 -6.096146860	 1.404230617	 -3.519795519
C	 -6.167676861	 -1.003789383	 -3.561045519
C	 -6.737716861	 0.224230617	 -3.890205519
H	 -4.387686861	 2.274760617	 -2.533385519
H	 -4.514776860	 -2.007599383	 -2.606675519
H	 -6.531796861	 2.361580617	 -3.771355519
H	 -6.659126861	 -1.924409383	 -3.844775519
H	 -7.673266861	 0.261290617	 -4.430365519
