15
0  1  0  1  0  1   3  12  1.94131  2.46449  2.21006  1.68689  2.17797  1.87199  5.76097  5.75521  5.70290  2.25702 -9.92837 19.97669 -3.51473 -4.27657
O	 0.000000000	 0.000000000	 0.000000000
H	 0.426990000	 0.411590000	 0.754090000
H	 0.426990000	 0.411600000	 -0.754090000
Br	 -2.258731150	 -1.244514815	 -0.000035206
C	 -3.921281150	 -2.127754815	 -0.000085206
C	 -5.097531150	 -1.381264815	 -0.000115206
C	 -3.958441150	 -3.520414815	 -0.000075206
C	 -6.323901150	 -2.042154815	 -0.000145206
C	 -5.191401150	 -4.168844815	 -0.000105206
C	 -6.375471150	 -3.434474815	 -0.000145206
H	 -5.050691150	 -0.301854815	 -0.000125206
H	 -3.036561150	 -4.083844815	 -0.000045206
H	 -7.238241150	 -1.464594815	 -0.000175206
H	 -5.222531150	 -5.249864815	 -0.000105206
H	 -7.329561150	 -3.942514815	 -0.000165206
