15
0  1  0  1  0  1   3  12 -1.16557 -1.01842 -1.03686 -1.18401 -1.05894 -1.13109  0.49298  0.49237  0.49276 -1.11528 -2.02787  3.32455 -0.69500 -1.71696
O	 0.000000000	 0.000000000	 0.000000000
H	 0.426990000	 0.411590000	 0.754090000
H	 0.426990000	 0.411600000	 -0.754090000
Br	 -2.701989461	 0.062420617	 1.559940318
C	 -4.331379461	 0.128780617	 2.500620318
C	 -4.890339461	 1.363390617	 2.823290318
C	 -4.962279461	 -1.058719383	 2.864880318
C	 -6.096309461	 1.404230617	 3.519520318
C	 -6.167799461	 -1.003789383	 3.560850318
C	 -6.737869461	 0.224230617	 3.889940318
H	 -4.387819461	 2.274760617	 2.533160318
H	 -4.514829461	 -2.007599383	 2.606580318
H	 -6.531989461	 2.361580617	 3.771030318
H	 -6.659239461	 -1.924409383	 3.844580318
H	 -7.673439461	 0.261290617	 4.430060318
