15
0  1  0  1  0  1   3  12 -0.91806 -0.69033 -0.73583 -0.96356 -0.76443 -0.88259  1.25854  1.25641  1.24923 -0.80637 -3.29651  5.87408 -1.09453 -2.28941
O	 0.000000000	 0.000000000	 0.000000000
H	 0.426990000	 0.411590000	 0.754090000
H	 0.426990000	 0.411600000	 -0.754090000
Br	 -2.559779490	 0.059135321	 1.477838196
C	 -4.189169490	 0.125495321	 2.418518196
C	 -4.748129490	 1.360105321	 2.741188196
C	 -4.820069490	 -1.062004679	 2.782778196
C	 -5.954099490	 1.400945321	 3.437418196
C	 -6.025589490	 -1.007074679	 3.478748196
C	 -6.595659490	 0.220945321	 3.807838196
H	 -4.245609490	 2.271475321	 2.451058196
H	 -4.372619490	 -2.010884679	 2.524478196
H	 -6.389779490	 2.358295321	 3.688928196
H	 -6.517029490	 -1.927694679	 3.762478196
H	 -7.531229490	 0.258005321	 4.347958196
