15
0  1  0  1  0  1   3  12 -0.41026 -0.28267 -0.29948 -0.42707 -0.31624 -0.37819  1.19840  1.19796  1.20299 -0.34807 -1.40885  3.21980 -0.65467 -1.50435
O	 2.537000000	 -0.058610000	 1.464790000
H	 2.529730000	 0.352990000	 2.331340000
H	 3.283820000	 0.352990000	 1.025220000
Br	 -0.247096189	 0.005708438	 -0.142666152
C	 -2.128526189	 0.072078438	 -0.142706152
C	 -2.773946189	 1.306678438	 -0.142746152
C	 -2.857036189	 -1.115421562	 -0.142706152
C	 -4.166456189	 1.347518438	 -0.142776152
C	 -4.249026189	 -1.060501562	 -0.142736152
C	 -4.907276189	 0.167518438	 -0.142776152
H	 -2.193676189	 2.218058438	 -0.142746152
H	 -2.340386189	 -2.064311562	 -0.142676152
H	 -4.669516189	 2.304868438	 -0.142806152
H	 -4.816496189	 -1.981121562	 -0.142726152
H	 -5.987556189	 0.204588438	 -0.142796152
