10
0  1  0  1  0  1   5   5 43.25331 44.98093 45.22848 43.50086 45.15636 44.13857 52.82779 52.80996 52.66606 43.66457 -40.23421 107.44422 -10.57936 -12.96609
F	 0.941152946	 0.564667916	 0.174216646
F	 -0.940665054	 -0.574405084	 0.169792646
C	 -0.005841054	 0.002080916	 0.965288646
H	 -0.479935054	 0.783044916	 1.552274646
H	 0.459117946	 -0.768405084	 1.573060646
F	 0.567646000	 -0.925379000	 -2.711230000
F	 -0.570653000	 0.958385000	 -2.669977000
C	 0.007324000	 0.004479000	 -1.897961000
H	 0.787980000	 0.463160000	 -1.299132000
H	 -0.759952000	 -0.472280000	 -1.295994000
