10
0  1  0  1  0  1   5   5 -1.81960 -1.71868 -1.59122 -1.69214 -1.60216 -1.65053 -0.95695 -0.94094 -0.93229 -1.70845 -1.59302  1.23262 -0.21277 -1.13527
F	 1.610634749	 -2.660082352	 -1.519743985
F	 0.617606749	 -1.008965352	 -2.584498985
C	 0.917283749	 -1.505446352	 -1.358242985
H	 1.543423749	 -0.790494352	 -0.833646985
H	 -0.007034251	 -1.721745352	 -0.831718985
F	 0.939938000	 0.557598000	 1.462149000
F	 -0.941880000	 -0.581475000	 1.457725000
C	 -0.007056000	 -0.004989000	 2.253221000
H	 -0.481150000	 0.775975000	 2.840207000
H	 0.457903000	 -0.775475000	 2.860993000
