10
0  1  0  1  0  1   5   5 -1.58088 -1.52592 -1.46072 -1.51569 -1.47121 -1.49222 -1.22697 -1.22138 -1.21023 -1.51812 -1.12785  0.27632 -0.09740 -0.56918
F	 0.939609838	 0.555688385	 1.810025070
F	 -0.942208162	 -0.583384615	 1.805601070
C	 -0.007384162	 -0.006898615	 2.601097070
H	 -0.481478162	 0.774065385	 3.188083070
H	 0.457574838	 -0.777384615	 3.208869070
F	 0.567646000	 -0.925379000	 -2.711230000
F	 -0.570653000	 0.958385000	 -2.669977000
C	 0.007324000	 0.004479000	 -1.897961000
H	 0.787980000	 0.463160000	 -1.299132000
H	 -0.759952000	 -0.472280000	 -1.295994000
