10
0  1  0  1  0  1   5   5  2.97195  3.48901  3.76713  3.25006  3.72922  3.43441  6.29683  6.30174  6.25956  3.25614 -7.72831 17.17062 -1.85825 -4.32792
F	 0.229403750	 -1.133477089	 -2.029164598
F	 -0.908895250	 0.750286911	 -1.987911598
C	 -0.330918250	 -0.203619089	 -1.215895598
H	 0.449737750	 0.255061911	 -0.617066598
H	 -1.098194250	 -0.680378089	 -0.613928598
F	 -0.859560000	 -0.531755000	 1.480056000
F	 -2.489766000	 -1.513117000	 0.376379000
C	 -2.020097000	 -1.220373000	 1.614425000
H	 -2.743660000	 -0.590030000	 2.122703000
H	 -1.816764000	 -2.148819000	 2.139655000
