10
0  1  0  1  0  1   5   5 -1.59636 -1.52327 -1.43470 -1.50780 -1.44341 -1.47654 -1.07907 -1.07101 -1.06130 -1.49761 -1.31175  0.75607 -0.16211 -0.77981
F	 2.625280791	 0.316619097	 -2.464017874
F	 1.473296791	 2.192136097	 -2.427107874
C	 1.718495791	 1.037676097	 -1.758451874
H	 2.139857791	 1.277440097	 -0.787176874
H	 0.796006791	 0.469756097	 -1.688765874
F	 0.939938000	 0.557598000	 1.462149000
F	 -0.941880000	 -0.581475000	 1.457725000
C	 -0.007056000	 -0.004989000	 2.253221000
H	 -0.481150000	 0.775975000	 2.840207000
H	 0.457903000	 -0.775475000	 2.860993000
