10
0  1  0  1  0  1   5   5 38.96330 40.61939 40.87875 39.22266 40.80186 39.83144 48.10957 48.08990 47.95373 39.44936 -37.37881 98.63575 -9.39055 -12.41703
F	 -0.313590728	 0.524961684	 -1.542801174
F	 -1.292154728	 2.136619684	 -0.406595174
C	 -0.589776728	 0.981472684	 -0.295675174
H	 0.344355272	 1.186729684	 0.217817826
H	 -1.201068728	 0.247148684	 0.219558826
F	 0.939938000	 0.557598000	 1.462149000
F	 -0.941880000	 -0.581475000	 1.457725000
C	 -0.007056000	 -0.004989000	 2.253221000
H	 -0.481150000	 0.775975000	 2.840207000
H	 0.457903000	 -0.775475000	 2.860993000
