10
0  1  0  1  0  1   5   5 -1.80576 -1.73221 -1.63863 -1.71218 -1.65041 -1.68102 -1.26082 -1.25114 -1.23904 -1.72202 -1.37115  0.59926 -0.14630 -0.80384
F	 0.939802726	 0.556810827	 1.605549017
F	 -0.942015274	 -0.582262173	 1.601125017
C	 -0.007191274	 -0.005776173	 2.396621017
H	 -0.481285274	 0.775187827	 2.983607017
H	 0.457767726	 -0.776262173	 3.004393017
F	 0.567646000	 -0.925379000	 -2.711230000
F	 -0.570653000	 0.958385000	 -2.669977000
C	 0.007324000	 0.004479000	 -1.897961000
H	 0.787980000	 0.463160000	 -1.299132000
H	 -0.759952000	 -0.472280000	 -1.295994000
