10
0  1  0  1  0  1   5   5 -1.21051 -1.17510 -1.13356 -1.16896 -1.13828 -1.15250 -1.03727 -1.03273 -1.02439 -1.16213 -0.86382  0.12898 -0.06367 -0.36362
F	 2.820618493	 0.436578115	 -2.857722128
F	 1.668634493	 2.312095115	 -2.820812128
C	 1.913833493	 1.157635115	 -2.152156128
H	 2.335195493	 1.397399115	 -1.180881128
H	 0.991344493	 0.589715115	 -2.082470128
F	 0.939938000	 0.557598000	 1.462149000
F	 -0.941880000	 -0.581475000	 1.457725000
C	 -0.007056000	 -0.004989000	 2.253221000
H	 -0.481150000	 0.775975000	 2.840207000
H	 0.457903000	 -0.775475000	 2.860993000
