10
0  1  0  1  0  1   5   5 26.01894 27.43338 27.78950 26.37506 27.71076 26.88298 34.20100 34.18470 34.05294 26.94941 -26.72857 70.40192 -5.91743 -10.80651
F	 0.208648304	 -0.340740262	 -1.511335789
F	 -0.929650696	 1.543023738	 -1.470082789
C	 -0.351673696	 0.589117738	 -0.698066789
H	 0.428982304	 1.047798738	 -0.099237789
H	 -1.118949696	 0.112358738	 -0.096099789
F	 -0.072787000	 2.234331000	 0.948092000
F	 -1.955538000	 1.096802000	 0.943193000
C	 -1.224661000	 2.011006000	 1.628099000
H	 -1.785679000	 2.939350000	 1.679646000
H	 -0.980643000	 1.602936000	 2.604396000
