10
0  1  0  1  0  1   5   5 27.13528 28.56949 28.91389 27.47968 28.83392 27.99467 35.41481 35.39729 35.26378 28.04272 -27.56400 72.71191 -6.18316 -10.92204
F	 0.922133498	 -1.519385650	 -1.524689068
F	 -0.216165502	 0.364378350	 -1.483436068
C	 0.361811498	 -0.589527650	 -0.711420068
H	 1.142467498	 -0.130846650	 -0.112591068
H	 -0.405464502	 -1.066286650	 -0.109453068
F	 1.953138000	 -1.112531000	 0.927923000
F	 0.072253000	 -2.253143000	 0.923009000
C	 1.212950000	 -2.016060000	 1.617019000
H	 0.953033000	 -1.591602000	 2.582162000
H	 1.774495000	 -2.942371000	 1.693415000
