10
0  1  0  1  0  1   5   5 -1.65735 -1.58671 -1.49854 -1.56918 -1.50934 -1.53992 -1.08120 -1.07012 -1.06061 -1.57934 -1.22186  0.56527 -0.13397 -0.78878
F	 -0.681844390	 1.143179256	 -2.777096502
F	 -1.660408390	 2.754837256	 -1.640890502
C	 -0.958030390	 1.599690256	 -1.529970502
H	 -0.023898390	 1.804947256	 -1.016477502
H	 -1.569322390	 0.865366256	 -1.014736502
F	 0.939938000	 0.557598000	 1.462149000
F	 -0.941880000	 -0.581475000	 1.457725000
C	 -0.007056000	 -0.004989000	 2.253221000
H	 -0.481150000	 0.775975000	 2.840207000
H	 0.457903000	 -0.775475000	 2.860993000
