10
0  1  0  1  0  1   5   5 -1.86560 -1.77532 -1.65069 -1.74098 -1.66173 -1.70269 -0.99312 -0.98325 -0.97173 -1.76361 -1.45278  1.02325 -0.19166 -1.14241
F	 0.516818622	 -0.842605058	 -2.541347358
F	 -0.621480378	 1.041158942	 -2.500094358
C	 -0.043503378	 0.087252942	 -1.728078358
H	 0.737152622	 0.545933942	 -1.129249358
H	 -0.810779378	 -0.389506058	 -1.126111358
F	 -0.072787000	 2.234331000	 0.948092000
F	 -1.955538000	 1.096802000	 0.943193000
C	 -1.224661000	 2.011006000	 1.628099000
H	 -1.785679000	 2.939350000	 1.679646000
H	 -0.980643000	 1.602936000	 2.604396000
