10
0  1  0  1  0  1   5   5 -1.08321 -0.89140 -0.71867 -0.91048 -0.73751 -0.83558  0.29714  0.30454  0.30910 -0.82518 -2.78229  4.31211 -0.54197 -1.81303
F	 -1.296513915	 -2.054767818	 -2.086865722
F	 -2.421120915	 -0.162710818	 -2.049839722
C	 -1.511138915	 -0.915505818	 -1.382579722
H	 -0.579172915	 -0.362781818	 -1.316662722
H	 -1.916398915	 -1.175360818	 -0.409637722
F	 0.939938000	 0.557598000	 1.462149000
F	 -0.941880000	 -0.581475000	 1.457725000
C	 -0.007056000	 -0.004989000	 2.253221000
H	 -0.481150000	 0.775975000	 2.840207000
H	 0.457903000	 -0.775475000	 2.860993000
