10
0  1  0  1  0  1   5   5 -1.66426 -1.60021 -1.51089 -1.57494 -1.52097 -1.54731 -1.07124 -1.06414 -1.05262 -1.59061 -1.15055  0.49585 -0.12587 -0.81004
F	 0.563737113	 -0.918828966	 -2.724313832
F	 -0.574561887	 0.964935034	 -2.683060832
C	 0.003415113	 0.011029034	 -1.911044832
H	 0.784071113	 0.469710034	 -1.312215832
H	 -0.763860887	 -0.465729966	 -1.309077832
F	 1.953138000	 -1.112531000	 0.927923000
F	 0.072253000	 -2.253143000	 0.923009000
C	 1.212950000	 -2.016060000	 1.617019000
H	 0.953033000	 -1.591602000	 2.582162000
H	 1.774495000	 -2.942371000	 1.693415000
