10
0  1  0  1  0  1   5   5 -1.43922 -1.39125 -1.32756 -1.37553 -1.33633 -1.35465 -1.03668 -1.03247 -1.02219 -1.38275 -0.94839  0.23455 -0.08506 -0.58384
F	 0.512537629	 -0.833035154	 -2.895688799
F	 -0.625761371	 1.050728846	 -2.854435799
C	 -0.047784371	 0.096822846	 -2.082419799
H	 0.732871629	 0.555503846	 -1.483590799
H	 -0.815060371	 -0.379936154	 -1.480452799
F	 1.953138000	 -1.112531000	 0.927923000
F	 0.072253000	 -2.253143000	 0.923009000
C	 1.212950000	 -2.016060000	 1.617019000
H	 0.953033000	 -1.591602000	 2.582162000
H	 1.774495000	 -2.942371000	 1.693415000
