10
0  1  0  1  0  1   5   5 -1.34073 -1.13911 -0.95087 -1.15250 -0.97113 -1.07607  0.19529  0.21101  0.21081 -1.22028 -3.00019  4.39981 -0.58821 -2.03169
F	 0.728086290	 -0.829865983	 -2.385092577
F	 -0.410212710	 1.053898017	 -2.343839577
C	 0.167764290	 0.099992017	 -1.571823577
H	 0.948420290	 0.558673017	 -0.972994577
H	 -0.599511710	 -0.376766983	 -0.969856577
F	 2.488398000	 1.500155000	 0.394880000
F	 0.859200000	 0.508584000	 1.490894000
C	 2.006968000	 1.217194000	 1.630702000
H	 1.782270000	 2.149502000	 2.140146000
H	 2.733476000	 0.605427000	 2.157153000
