10
0  1  0  1  0  1   5   5 -1.20758 -1.17237 -1.13097 -1.16617 -1.13559 -1.14979 -1.03604 -1.03142 -1.02318 -1.15950 -0.86289  0.12887 -0.06355 -0.36192
F	 -1.685913418	 -2.286149337	 -2.878028622
F	 -2.810520418	 -0.394092337	 -2.841002622
C	 -1.900538418	 -1.146887337	 -2.173742622
H	 -0.968572418	 -0.594163337	 -2.107825622
H	 -2.305798418	 -1.406742337	 -1.200800622
F	 0.939938000	 0.557598000	 1.462149000
F	 -0.941880000	 -0.581475000	 1.457725000
C	 -0.007056000	 -0.004989000	 2.253221000
H	 -0.481150000	 0.775975000	 2.840207000
H	 0.457903000	 -0.775475000	 2.860993000
