10
0  1  0  1  0  1   5   5 -1.91011 -1.77292 -1.60126 -1.73846 -1.61381 -1.68221 -0.63716 -0.62443 -0.61575 -1.75627 -1.99534  2.17278 -0.31076 -1.62295
F	 0.666136080	 -1.090416590	 -2.381563899
F	 -0.472162920	 0.793347410	 -2.340310899
C	 0.105814080	 -0.160558590	 -1.568294899
H	 0.886470080	 0.298122410	 -0.969465899
H	 -0.661461920	 -0.637317590	 -0.966327899
F	 1.953138000	 -1.112531000	 0.927923000
F	 0.072253000	 -2.253143000	 0.923009000
C	 1.212950000	 -2.016060000	 1.617019000
H	 0.953033000	 -1.591602000	 2.582162000
H	 1.774495000	 -2.942371000	 1.693415000
