10
0  1  0  1  0  1   5   5  2.96521  3.52963  3.88512  3.32070  3.84716  3.52613  6.86232  6.86685  6.82732  3.55485 -8.01743 18.16651 -1.62754 -4.96669
F	 0.311371744	 -0.508028528	 -1.854672979
F	 -0.826927256	 1.375735472	 -1.813419979
C	 -0.248950256	 0.421829472	 -1.041403979
H	 0.531705744	 0.880510472	 -0.442574979
H	 -1.016226256	 -0.054929528	 -0.439436979
F	 -0.072787000	 2.234331000	 0.948092000
F	 -1.955538000	 1.096802000	 0.943193000
C	 -1.224661000	 2.011006000	 1.628099000
H	 -1.785679000	 2.939350000	 1.679646000
H	 -0.980643000	 1.602936000	 2.604396000
