10
0  1  0  1  0  1   5   5 -1.43869 -1.39092 -1.32698 -1.37476 -1.33564 -1.35390 -1.03297 -1.02900 -1.01869 -1.38248 -0.94256  0.23147 -0.08441 -0.58697
F	 0.619542061	 -1.009893324	 -2.884684548
F	 -0.518756939	 0.873870676	 -2.843431548
C	 0.059220061	 -0.080035324	 -2.071415548
H	 0.839876061	 0.378645676	 -1.472586548
H	 -0.708055939	 -0.556794324	 -1.469448548
F	 -0.072787000	 2.234331000	 0.948092000
F	 -1.955538000	 1.096802000	 0.943193000
C	 -1.224661000	 2.011006000	 1.628099000
H	 -1.785679000	 2.939350000	 1.679646000
H	 -0.980643000	 1.602936000	 2.604396000
