10
0  1  0  1  0  1   5   5 -1.18978 -0.94062 -0.70054 -0.94970 -0.71934 -0.85412  0.70419  0.72136  0.71757 -0.93519 -3.40068  5.47098 -0.60398 -2.40151
F	 -0.524021392	 0.878228868	 -2.248112790
F	 -1.502585392	 2.489886868	 -1.111906790
C	 -0.800207392	 1.334739868	 -1.000986790
H	 0.133924608	 1.539996868	 -0.487493790
H	 -1.411499392	 0.600415868	 -0.485752790
F	 0.939938000	 0.557598000	 1.462149000
F	 -0.941880000	 -0.581475000	 1.457725000
C	 -0.007056000	 -0.004989000	 2.253221000
H	 -0.481150000	 0.775975000	 2.840207000
H	 0.457903000	 -0.775475000	 2.860993000
