10
0  1  0  1  0  1   5   5 -1.71589 -1.63100 -1.52897 -1.61386 -1.54356 -1.57970 -1.03294 -1.02015 -1.00948 -1.66008 -1.52318  1.04467 -0.21160 -0.96996
F	 0.549022090	 -0.936466152	 -2.749088035
F	 -0.589276910	 0.947297848	 -2.707835035
C	 -0.011299910	 -0.006608152	 -1.935819035
H	 0.769356090	 0.452072848	 -1.336990035
H	 -0.778575910	 -0.483367152	 -1.333852035
F	 2.488398000	 1.500155000	 0.394880000
F	 0.859200000	 0.508584000	 1.490894000
C	 2.006968000	 1.217194000	 1.630702000
H	 1.782270000	 2.149502000	 2.140146000
H	 2.733476000	 0.605427000	 2.157153000
