10
0  1  0  1  0  1   5   5 -1.60550 -1.48983 -1.36356 -1.47923 -1.37580 -1.43194 -0.75646 -0.74792 -0.73923 -1.45196 -1.80378  1.81232 -0.28561 -1.17489
F	 -1.393863791	 -2.112613198	 -2.284656447
F	 -2.518470791	 -0.220556198	 -2.247630447
C	 -1.608488791	 -0.973351198	 -1.580370447
H	 -0.676522791	 -0.420627198	 -1.514453447
H	 -2.013748791	 -1.233206198	 -0.607428447
F	 0.939938000	 0.557598000	 1.462149000
F	 -0.941880000	 -0.581475000	 1.457725000
C	 -0.007056000	 -0.004989000	 2.253221000
H	 -0.481150000	 0.775975000	 2.840207000
H	 0.457903000	 -0.775475000	 2.860993000
