10
0  1  0  1  0  1   5   5 -1.55283 -1.33530 -1.10535 -1.32288 -1.12234 -1.23755  0.30442  0.31695  0.31866 -1.31579 -2.95322  4.49705 -0.52130 -2.33832
F	 0.717335564	 -1.176210402	 -2.210188933
F	 -0.420963436	 0.707553598	 -2.168935933
C	 0.157013564	 -0.246352402	 -1.396919933
H	 0.937669564	 0.212328598	 -0.798090933
H	 -0.610262436	 -0.723111402	 -0.794952933
F	 1.953138000	 -1.112531000	 0.927923000
F	 0.072253000	 -2.253143000	 0.923009000
C	 1.212950000	 -2.016060000	 1.617019000
H	 0.953033000	 -1.591602000	 2.582162000
H	 1.774495000	 -2.942371000	 1.693415000
