10
0  1  0  1  0  1   5   5 -1.08787 -0.89582 -0.72263 -0.91469 -0.74186 -0.83967  0.30074  0.30803  0.31303 -0.82753 -2.78044  4.30991 -0.53785 -1.81915
F	 2.429943088	 0.196660080	 -2.070313619
F	 1.277959088	 2.072177080	 -2.033403619
C	 1.523158088	 0.917717080	 -1.364747619
H	 1.944520088	 1.157481080	 -0.393472619
H	 0.600669088	 0.349797080	 -1.295061619
F	 0.939938000	 0.557598000	 1.462149000
F	 -0.941880000	 -0.581475000	 1.457725000
C	 -0.007056000	 -0.004989000	 2.253221000
H	 -0.481150000	 0.775975000	 2.840207000
H	 0.457903000	 -0.775475000	 2.860993000
