10
0  1  0  1  0  1   5   5  3.10479  3.63082  3.91056  3.38452  3.87239  3.57201  6.47337  6.47794  6.43448  3.39738 -7.89964 17.60110 -1.91243 -4.39165
F	 0.907150491	 -0.723265814	 -2.021097120
F	 -0.231148509	 1.160498186	 -1.979844120
C	 0.346828491	 0.206592186	 -1.207828120
H	 1.127484491	 0.665273186	 -0.608999120
H	 -0.420447509	 -0.270166814	 -0.605861120
F	 2.488398000	 1.500155000	 0.394880000
F	 0.859200000	 0.508584000	 1.490894000
C	 2.006968000	 1.217194000	 1.630702000
H	 1.782270000	 2.149502000	 2.140146000
H	 2.733476000	 0.605427000	 2.157153000
