10
0  1  0  1  0  1   5   5 -1.60996 -1.49392 -1.36739 -1.48342 -1.38000 -1.43603 -0.75541 -0.74706 -0.73815 -1.45517 -1.80371  1.81228 -0.28432 -1.17941
F	 2.527611939	 0.256639588	 -2.267165746
F	 1.375627939	 2.132156588	 -2.230255746
C	 1.620826939	 0.977696588	 -1.561599746
H	 2.042188939	 1.217460588	 -0.590324746
H	 0.698337939	 0.409776588	 -1.491913746
F	 0.939938000	 0.557598000	 1.462149000
F	 -0.941880000	 -0.581475000	 1.457725000
C	 -0.007056000	 -0.004989000	 2.253221000
H	 -0.481150000	 0.775975000	 2.840207000
H	 0.457903000	 -0.775475000	 2.860993000
