10
0  1  0  1  0  1   5   5 -1.41644 -1.36720 -1.30645 -1.35569 -1.31299 -1.33374 -1.11083 -1.10445 -1.09510 -1.34927 -1.03731  0.31326 -0.09862 -0.52659
F	 2.722949642	 0.376598606	 -2.660870001
F	 1.570965642	 2.252115606	 -2.623960001
C	 1.816164642	 1.097655606	 -1.955304001
H	 2.237526642	 1.337419606	 -0.984029001
H	 0.893675642	 0.529735606	 -1.885618001
F	 0.939938000	 0.557598000	 1.462149000
F	 -0.941880000	 -0.581475000	 1.457725000
C	 -0.007056000	 -0.004989000	 2.253221000
H	 -0.481150000	 0.775975000	 2.840207000
H	 0.457903000	 -0.775475000	 2.860993000
