10
0  1  0  1  0  1   5   5 -1.72103 -1.59639 -1.45729 -1.58193 -1.47268 -1.53264 -0.70836 -0.69201 -0.68444 -1.64358 -2.02715  2.10022 -0.33877 -1.37788
F	 0.499508202	 -0.967299681	 -2.573830150
F	 -0.638790798	 0.916464319	 -2.532577150
C	 -0.060813798	 -0.037441681	 -1.760561150
H	 0.719842202	 0.421239319	 -1.161732150
H	 -0.828089798	 -0.514200681	 -1.158594150
F	 -0.859560000	 -0.531755000	 1.480056000
F	 -2.489766000	 -1.513117000	 0.376379000
C	 -2.020097000	 -1.220373000	 1.614425000
H	 -2.743660000	 -0.590030000	 2.122703000
H	 -1.816764000	 -2.148819000	 2.139655000
