10
0  1  0  1  0  1   5   5 -1.85952 -1.76891 -1.64421 -1.73482 -1.65502 -1.69636 -0.98967 -0.97913 -0.96777 -1.75665 -1.46469  1.04166 -0.19375 -1.13987
F	 0.614936596	 -1.004622778	 -2.552938866
F	 -0.523362404	 0.879141222	 -2.511685866
C	 0.054614596	 -0.074764778	 -1.739669866
H	 0.835270596	 0.383916222	 -1.140840866
H	 -0.712661404	 -0.551523778	 -1.137702866
F	 1.953138000	 -1.112531000	 0.927923000
F	 0.072253000	 -2.253143000	 0.923009000
C	 1.212950000	 -2.016060000	 1.617019000
H	 0.953033000	 -1.591602000	 2.582162000
H	 1.774495000	 -2.942371000	 1.693415000
