10
0  1  0  1  0  1   5   5 50.88961 52.37652 52.40435 50.91744 52.33843 51.48499 60.08100 60.07278 59.99708 50.78361 -41.00897 117.88899 -14.09847 -11.99793
F	 2.039267684	 -0.043257955	 -1.282905110
F	 0.887283684	 1.832259045	 -1.245995110
C	 1.132482684	 0.677799045	 -0.577339110
H	 1.553844684	 0.917563045	 0.393935890
H	 0.209993684	 0.109879045	 -0.507653110
F	 0.939938000	 0.557598000	 1.462149000
F	 -0.941880000	 -0.581475000	 1.457725000
C	 -0.007056000	 -0.004989000	 2.253221000
H	 -0.481150000	 0.775975000	 2.840207000
H	 0.457903000	 -0.775475000	 2.860993000
