10
0  1  0  1  0  1   5   5 -1.23831 -0.97676 -0.72491 -0.98646 -0.74414 -0.88576  0.65846  0.67483  0.67120 -0.95733 -3.70263  5.88070 -0.66280 -2.47261
F	 0.940381392	 0.560178151	 0.992120858
F	 -0.941436608	 -0.578894849	 0.987696858
C	 -0.006612608	 -0.002408849	 1.783192858
H	 -0.480706608	 0.778555151	 2.370178858
H	 0.458346392	 -0.772894849	 2.390964858
F	 0.567646000	 -0.925379000	 -2.711230000
F	 -0.570653000	 0.958385000	 -2.669977000
C	 0.007324000	 0.004479000	 -1.897961000
H	 0.787980000	 0.463160000	 -1.299132000
H	 -0.759952000	 -0.472280000	 -1.295994000
