10
0  1  0  1  0  1   5   5 -1.41295 -1.36401 -1.30342 -1.35236 -1.30972 -1.33049 -1.10987 -1.10332 -1.09410 -1.34616 -1.03639  0.31310 -0.09861 -0.52426
F	 -1.588563542	 -2.228303957	 -2.680237897
F	 -2.713170542	 -0.336246957	 -2.643211897
C	 -1.803188542	 -1.089041957	 -1.975951897
H	 -0.871222542	 -0.536317957	 -1.910034897
H	 -2.208448542	 -1.348896957	 -1.003009897
F	 0.939938000	 0.557598000	 1.462149000
F	 -0.941880000	 -0.581475000	 1.457725000
C	 -0.007056000	 -0.004989000	 2.253221000
H	 -0.481150000	 0.775975000	 2.840207000
H	 0.457903000	 -0.775475000	 2.860993000
