10
0  1  0  1  0  1   5   5  5.44545  6.12239  6.48489  5.80795  6.44197  6.05003  9.61006  9.61369  9.55348  6.10786 -10.25905 23.92662 -2.18068 -5.37904
F	 -0.418806060	 0.701595276	 -1.895456982
F	 -1.397370060	 2.313253276	 -0.759250982
C	 -0.694992060	 1.158106276	 -0.648330982
H	 0.239139940	 1.363363276	 -0.134837982
H	 -1.306284060	 0.423782276	 -0.133096982
F	 0.939938000	 0.557598000	 1.462149000
F	 -0.941880000	 -0.581475000	 1.457725000
C	 -0.007056000	 -0.004989000	 2.253221000
H	 -0.481150000	 0.775975000	 2.840207000
H	 0.457903000	 -0.775475000	 2.860993000
