10
0  1  0  1  0  1   5   5  6.30865  6.85898  7.10290  6.55257  7.06602  6.75769  9.89435  9.89847  9.87123  7.07774 -9.38482 23.44099 -2.44045 -4.53798
F	 2.234605386	 0.076701062	 -1.676609364
F	 1.082621386	 1.952218062	 -1.639699364
C	 1.327820386	 0.797758062	 -0.971043364
H	 1.749182386	 1.037522062	 0.000231636
H	 0.405331386	 0.229838062	 -0.901357364
F	 0.939938000	 0.557598000	 1.462149000
F	 -0.941880000	 -0.581475000	 1.457725000
C	 -0.007056000	 -0.004989000	 2.253221000
H	 -0.481150000	 0.775975000	 2.840207000
H	 0.457903000	 -0.775475000	 2.860993000
