10
0  1  0  1  0  1   5   5 -1.77885 -1.62492 -1.44784 -1.60177 -1.46062 -1.54008 -0.50328 -0.48460 -0.47951 -1.61402 -2.21634  2.58322 -0.34666 -1.63423
F	 -0.576629058	 0.966545664	 -2.424440694
F	 -1.555193058	 2.578203664	 -1.288234694
C	 -0.852815058	 1.423056664	 -1.177314694
H	 0.081316942	 1.628313664	 -0.663821694
H	 -1.464107058	 0.688732664	 -0.662080694
F	 0.939938000	 0.557598000	 1.462149000
F	 -0.941880000	 -0.581475000	 1.457725000
C	 -0.007056000	 -0.004989000	 2.253221000
H	 -0.481150000	 0.775975000	 2.840207000
H	 0.457903000	 -0.775475000	 2.860993000
