10
0  1  0  1  0  1   5   5 -1.35405 -1.15632 -0.97033 -1.16805 -0.99012 -1.09289  0.16037  0.17645  0.17669 -1.23689 -2.94803  4.28884 -0.57513 -2.00258
F	 0.409473385	 -1.022692150	 -2.392274966
F	 -0.728825615	 0.861071850	 -2.351021966
C	 -0.150848615	 -0.092834150	 -1.579005966
H	 0.629807385	 0.365846850	 -0.980176966
H	 -0.918124615	 -0.569593150	 -0.977038966
F	 -0.859560000	 -0.531755000	 1.480056000
F	 -2.489766000	 -1.513117000	 0.376379000
C	 -2.020097000	 -1.220373000	 1.614425000
H	 -2.743660000	 -0.590030000	 2.122703000
H	 -1.816764000	 -2.148819000	 2.139655000
