10
0  1  0  1  0  1   5   5  3.20359  3.77688  4.13148  3.55819  4.09291  3.76638  7.12815  7.13258  7.09135  3.80037 -8.19931 18.67273 -1.67740 -4.99564
F	 0.819734531	 -1.347798026	 -1.867439000
F	 -0.318564469	 0.535965974	 -1.826186000
C	 0.259412531	 -0.417940026	 -1.054170000
H	 1.040068531	 0.040740974	 -0.455341000
H	 -0.507863469	 -0.894699026	 -0.452203000
F	 1.953138000	 -1.112531000	 0.927923000
F	 0.072253000	 -2.253143000	 0.923009000
C	 1.212950000	 -2.016060000	 1.617019000
H	 0.953033000	 -1.591602000	 2.582162000
H	 1.774495000	 -2.942371000	 1.693415000
