10
0  1  0  1  0  1   5   5 -1.44847 -1.39512 -1.33312 -1.38646 -1.34315 -1.36441 -1.06072 -1.05419 -1.04522 -1.38836 -1.00134  0.26660 -0.08982 -0.56380
F	 1.716452441	 -2.832729412	 -1.873902362
F	 0.723424441	 -1.181612412	 -2.938657362
C	 1.023101441	 -1.678093412	 -1.712401362
H	 1.649241441	 -0.963141412	 -1.187805362
H	 0.098783441	 -1.894392412	 -1.185877362
F	 0.939938000	 0.557598000	 1.462149000
F	 -0.941880000	 -0.581475000	 1.457725000
C	 -0.007056000	 -0.004989000	 2.253221000
H	 -0.481150000	 0.775975000	 2.840207000
H	 0.457903000	 -0.775475000	 2.860993000
