10
0  1  0  1  0  1   5   5  6.31361  6.86334  7.10584  6.55611  7.06931  6.76082  9.87814  9.88209  9.85412  7.07494 -9.39871 23.47547 -2.47417 -4.52764
F	 -1.101814164	 -1.939077058	 -1.691284272
F	 -2.226421164	 -0.047020058	 -1.654258272
C	 -1.316439164	 -0.799815058	 -0.986998272
H	 -0.384473164	 -0.247091058	 -0.921081272
H	 -1.721699164	 -1.059670058	 -0.014056272
F	 0.939938000	 0.557598000	 1.462149000
F	 -0.941880000	 -0.581475000	 1.457725000
C	 -0.007056000	 -0.004989000	 2.253221000
H	 -0.481150000	 0.775975000	 2.840207000
H	 0.457903000	 -0.775475000	 2.860993000
