10
0  1  0  1  0  1   5   5 -1.36208 -1.31416 -1.26330 -1.31122 -1.27693 -1.29223 -1.06770 -1.06442 -1.05370 -1.32688 -0.99230  0.23760 -0.08839 -0.48380
F	 0.369957889	 -1.043066321	 -3.113083492
F	 -0.768341111	 0.840697679	 -3.071830492
C	 -0.190364111	 -0.113208321	 -2.299814492
H	 0.590291889	 0.345472679	 -1.700985492
H	 -0.957640111	 -0.589967321	 -1.697847492
F	 2.488398000	 1.500155000	 0.394880000
F	 0.859200000	 0.508584000	 1.490894000
C	 2.006968000	 1.217194000	 1.630702000
H	 1.782270000	 2.149502000	 2.140146000
H	 2.733476000	 0.605427000	 2.157153000
