10
0  1  0  1  0  1   5   5 -1.55795 -1.49615 -1.42383 -1.48563 -1.43865 -1.46096 -1.10716 -1.09961 -1.08811 -1.51572 -1.20158  0.50094 -0.13442 -0.68066
F	 0.459489989	 -0.989766236	 -2.931085763
F	 -0.678809011	 0.893997764	 -2.889832763
C	 -0.100832011	 -0.059908236	 -2.117816763
H	 0.679823989	 0.398772764	 -1.518987763
H	 -0.868108011	 -0.536667236	 -1.515849763
F	 2.488398000	 1.500155000	 0.394880000
F	 0.859200000	 0.508584000	 1.490894000
C	 2.006968000	 1.217194000	 1.630702000
H	 1.782270000	 2.149502000	 2.140146000
H	 2.733476000	 0.605427000	 2.157153000
