10
0  1  0  1  0  1   5   5  5.96009  7.17458  6.14434  4.92985  6.04965  5.38465 14.88974 14.88540 14.84363  7.47757 -12.49382 30.46157 -2.43328 -8.05691
Cl	 -0.282051159	 -1.099407286	 -2.344869191
Cl	 0.420829841	 1.755961714	 -2.342484191
C	 0.094196841	 0.321517714	 -1.361586191
H	 0.975162841	 0.103099714	 -0.773342191
H	 -0.755545159	 0.531203714	 -0.726316191
Cl	 0.801714000	 3.258659000	 0.160597000
Cl	 0.188697000	 0.786751000	 1.628667000
C	 0.609044000	 2.501307000	 1.747958000
H	 -0.190788000	 3.009448000	 2.270160000
H	 1.549018000	 2.582982000	 2.277479000
