10
0  1  0  1  0  1   5   5 -1.06562 -1.01024 -1.07539 -1.13077 -1.08708 -1.10966 -0.48086 -0.47935 -0.47302 -1.03629 -0.49466  0.17913 -0.07195 -0.64881
Cl	 -1.018364879	 -4.088423744	 -2.770316553
Cl	 -0.409320879	 -1.614455744	 -4.238554553
C	 -0.571644879	 -2.381304744	 -2.653603553
H	 0.379668121	 -2.313940744	 -2.143403553
H	 -1.345477879	 -1.863244744	 -2.103700553
Cl	 0.345459000	 1.418918000	 1.445487000
Cl	 -0.362081000	 -1.434279000	 1.443480000
C	 -0.013034000	 -0.007166000	 2.429451000
H	 -0.885412000	 0.208441000	 3.032032000
H	 0.853362000	 -0.222187000	 3.040792000
