10
0  1  0  1  0  1   5   5 -2.41915 -2.02980 -2.43294 -2.82229 -2.50702 -2.68963  1.24861  1.25123  1.25040 -2.12169 -2.74727  4.90608 -0.63924 -3.64127
Cl	 1.717864486	 -1.930024347	 -2.093234005
Cl	 2.426142486	 0.924008653	 -2.089340005
C	 1.616788486	 -0.391048347	 -1.227918005
H	 2.093668486	 -0.511776347	 -0.264669005
H	 0.573056486	 -0.131138347	 -1.115366005
Cl	 0.345459000	 1.418918000	 1.445487000
Cl	 -0.362081000	 -1.434279000	 1.443480000
C	 -0.013034000	 -0.007166000	 2.429451000
H	 -0.885412000	 0.208441000	 3.032032000
H	 0.853362000	 -0.222187000	 3.040792000
