10
0  1  0  1  0  1   5   5 -1.67201 -1.54718 -1.69182 -1.81665 -1.71122 -1.76918 -0.27257 -0.26919 -0.26211 -1.57008 -0.78001  0.76580 -0.16626 -1.38962
Cl	 -0.420160941	 -1.656421955	 -3.349495069
Cl	 0.282720059	 1.198947045	 -3.347110069
C	 -0.043912941	 -0.235496955	 -2.366212069
H	 0.837053059	 -0.453914955	 -1.777968069
H	 -0.893654941	 -0.025810955	 -1.730942069
Cl	 0.801714000	 3.258659000	 0.160597000
Cl	 0.188697000	 0.786751000	 1.628667000
C	 0.609044000	 2.501307000	 1.747958000
H	 -0.190788000	 3.009448000	 2.270160000
H	 1.549018000	 2.582982000	 2.277479000
