10
0  1  0  1  0  1   5   5 -1.91564 -1.71882 -1.91802 -2.11483 -1.94603 -2.04085  0.08298  0.08707  0.09364 -1.74637 -1.16005  1.62708 -0.26290 -1.95051
Cl	 -0.392538984	 -1.545019021	 -3.148569893
Cl	 0.310342016	 1.310349979	 -3.146184893
C	 -0.016290984	 -0.124094021	 -2.165286893
H	 0.864675016	 -0.342512021	 -1.577042893
H	 -0.866032984	 0.085591979	 -1.530016893
Cl	 0.801714000	 3.258659000	 0.160597000
Cl	 0.188697000	 0.786751000	 1.628667000
C	 0.609044000	 2.501307000	 1.747958000
H	 -0.190788000	 3.009448000	 2.270160000
H	 1.549018000	 2.582982000	 2.277479000
