10
0  1  0  1  0  1   5   5 -1.37587 -0.87948 -1.30401 -1.80041 -1.35924 -1.61538  2.79930  2.80215  2.79957 -0.86227 -3.38522  7.18652 -0.73482 -3.92875
Cl	 -0.337295072	 -1.322213154	 -2.746719542
Cl	 0.365585928	 1.533155846	 -2.744334542
C	 0.038952928	 0.098711846	 -1.763436542
H	 0.919918928	 -0.119706154	 -1.175192542
H	 -0.810789072	 0.308397846	 -1.128166542
Cl	 0.801714000	 3.258659000	 0.160597000
Cl	 0.188697000	 0.786751000	 1.628667000
C	 0.609044000	 2.501307000	 1.747958000
H	 -0.190788000	 3.009448000	 2.270160000
H	 1.549018000	 2.582982000	 2.277479000
