10
0  1  0  1  0  1   5   5 -2.46232 -2.19536 -2.47966 -2.74663 -2.53559 -2.65673  0.17901  0.18323  0.18528 -2.28977 -1.82453  2.57707 -0.39683 -2.64548
Cl	 -2.543679429	 -0.880186682	 -2.275916449
Cl	 -1.846208429	 1.976506318	 -2.272058449
C	 -1.696512429	 0.425502318	 -1.436321449
H	 -0.647439429	 0.168225318	 -1.380700449
H	 -2.124357429	 0.529670318	 -0.448548449
Cl	 0.345459000	 1.418918000	 1.445487000
Cl	 -0.362081000	 -1.434279000	 1.443480000
C	 -0.013034000	 -0.007166000	 2.429451000
H	 -0.885412000	 0.208441000	 3.032032000
H	 0.853362000	 -0.222187000	 3.040792000
