10
0  1  0  1  0  1   5   5 -1.94742 -1.82094 -1.97430 -2.10078 -2.00362 -2.05708 -0.56373 -0.56020 -0.55378 -1.89760 -0.99605  0.69749 -0.17484 -1.42420
Cl	 2.033425875	 -2.005040646	 -2.654973145
Cl	 2.741703875	 0.848992354	 -2.651079145
C	 1.932349875	 -0.466064646	 -1.789657145
H	 2.409229875	 -0.586792646	 -0.826408145
H	 0.888617875	 -0.206154646	 -1.677105145
Cl	 0.345459000	 1.418918000	 1.445487000
Cl	 -0.362081000	 -1.434279000	 1.443480000
C	 -0.013034000	 -0.007166000	 2.429451000
H	 -0.885412000	 0.208441000	 3.032032000
H	 0.853362000	 -0.222187000	 3.040792000
