10
0  1  0  1  0  1   5   5 -2.41596 -2.02725 -2.43058 -2.81929 -2.50448 -2.68680  1.24898  1.25169  1.25094 -2.11853 -2.72661  4.87479 -0.63106 -3.63566
Cl	 -2.438914076	 -0.906860780	 -2.088663884
Cl	 -1.741443076	 1.949832220	 -2.084805884
C	 -1.591747076	 0.398828220	 -1.249068884
H	 -0.542674076	 0.141551220	 -1.193447884
H	 -2.019592076	 0.502996220	 -0.261295884
Cl	 0.345459000	 1.418918000	 1.445487000
Cl	 -0.362081000	 -1.434279000	 1.443480000
C	 -0.013034000	 -0.007166000	 2.429451000
H	 -0.885412000	 0.208441000	 3.032032000
H	 0.853362000	 -0.222187000	 3.040792000
