10
0  1  0  1  0  1   5   5  5.99617  7.20685  6.18306  4.97238  6.08887  5.42631 14.90610 14.90170 14.86118  7.51007 -12.40279 30.35765 -2.41220 -8.03259
Cl	 -0.439136655	 -1.732855699	 -2.351490968
Cl	 0.263744345	 1.122513301	 -2.349105968
C	 -0.062888655	 -0.311930699	 -1.368207968
H	 0.818077345	 -0.530348699	 -0.779963968
H	 -0.912630655	 -0.102244699	 -0.732937968
Cl	 -0.204284000	 -0.797907000	 1.610498000
Cl	 -0.816759000	 -3.267882000	 0.138952000
C	 -0.633759000	 -2.510303000	 1.727413000
H	 -1.578634000	 -2.587046000	 2.248907000
H	 0.159073000	 -3.021978000	 2.256771000
