10
0  1  0  1  0  1   5   5 -1.87827 -1.29106 -1.88565 -2.47286 -1.97964 -2.26605  3.28391  3.28472  3.28173 -1.37505 -4.73875  9.57811 -1.10554 -5.10888
Cl	 -0.360730222	 -1.416690055	 -2.450607812
Cl	 0.342150778	 1.438678945	 -2.448222812
C	 0.015517778	 0.004234945	 -1.467324812
H	 0.896483778	 -0.214183055	 -0.879080812
H	 -0.834224222	 0.213920945	 -0.832054812
Cl	 0.345459000	 1.418918000	 1.445487000
Cl	 -0.362081000	 -1.434279000	 1.443480000
C	 -0.013034000	 -0.007166000	 2.429451000
H	 -0.885412000	 0.208441000	 3.032032000
H	 0.853362000	 -0.222187000	 3.040792000
