10
0  1  0  1  0  1   5   5 -1.20034 -0.87329 -1.15324 -1.48028 -1.20851 -1.36539  1.71677  1.71614  1.71670 -0.83372 -2.45014  5.07778 -0.60262 -2.85873
Cl	 0.270583505	 1.147968333	 -3.333292763
Cl	 0.878974505	 3.619641333	 -1.860923763
C	 0.482243505	 1.900314333	 -1.746909763
H	 1.292964505	 1.396510333	 -1.238233763
H	 -0.443434495	 1.801493333	 -1.196499763
Cl	 0.345459000	 1.418918000	 1.445487000
Cl	 -0.362081000	 -1.434279000	 1.443480000
C	 -0.013034000	 -0.007166000	 2.429451000
H	 -0.885412000	 0.208441000	 3.032032000
H	 0.853362000	 -0.222187000	 3.040792000
