10
0  1  0  1  0  1   5   5 -2.61592 -2.33954 -2.62447 -2.90085 -2.68013 -2.80624  0.04440  0.04968  0.05324 -2.43885 -2.02811  2.70368 -0.42073 -2.69369
Cl	 -0.360242894	 -1.414762091	 -2.883303826
Cl	 0.342638106	 1.440606909	 -2.880918826
C	 0.016005106	 0.006162909	 -1.900020826
H	 0.896971106	 -0.212255091	 -1.311776826
H	 -0.833736894	 0.215848909	 -1.264750826
Cl	 0.345459000	 1.418918000	 1.445487000
Cl	 -0.362081000	 -1.434279000	 1.443480000
C	 -0.013034000	 -0.007166000	 2.429451000
H	 -0.885412000	 0.208441000	 3.032032000
H	 0.853362000	 -0.222187000	 3.040792000
