10
0  1  0  1  0  1   5   5 -1.77041 -1.20343 -1.78921 -2.35619 -1.88234 -2.15832  3.32239  3.32191  3.31710 -1.28055 -4.32483  9.09767 -1.03872 -5.01468
Cl	 -2.334148723	 -0.933534877	 -1.901411320
Cl	 -1.636677723	 1.923158123	 -1.897553320
C	 -1.486981723	 0.372154123	 -1.061816320
H	 -0.437908723	 0.114877123	 -1.006195320
H	 -1.914826723	 0.476322123	 -0.074043320
Cl	 0.345459000	 1.418918000	 1.445487000
Cl	 -0.362081000	 -1.434279000	 1.443480000
C	 -0.013034000	 -0.007166000	 2.429451000
H	 -0.885412000	 0.208441000	 3.032032000
H	 0.853362000	 -0.222187000	 3.040792000
