10
0  1  0  1  0  1   5   5 -1.64519 -1.43380 -1.61695 -1.82834 -1.65821 -1.75512  0.31347  0.31462  0.31803 -1.44712 -1.44571  2.29961 -0.33437 -1.96665
Cl	 -0.925792928	 -3.712260998	 -2.092165715
Cl	 -0.316748928	 -1.238292998	 -3.560403715
C	 -0.479072928	 -2.005141998	 -1.975452715
H	 0.472240072	 -1.937777998	 -1.465252715
H	 -1.252905928	 -1.487081998	 -1.425549715
Cl	 0.345459000	 1.418918000	 1.445487000
Cl	 -0.362081000	 -1.434279000	 1.443480000
C	 -0.013034000	 -0.007166000	 2.429451000
H	 -0.885412000	 0.208441000	 3.032032000
H	 0.853362000	 -0.222187000	 3.040792000
