10
0  1  0  1  0  1   5   5 -1.65457 -1.53060 -1.67408 -1.79804 -1.69344 -1.75098 -0.26199 -0.25867 -0.25171 -1.55196 -0.76334  0.75843 -0.16520 -1.38184
Cl	 -0.298611260	 -1.166272628	 -3.351928745
Cl	 0.404269740	 1.689096372	 -3.349543745
C	 0.077636740	 0.254652372	 -2.368645745
H	 0.958602740	 0.036234372	 -1.780401745
H	 -0.772105260	 0.464338372	 -1.733375745
Cl	 -0.204284000	 -0.797907000	 1.610498000
Cl	 -0.816759000	 -3.267882000	 0.138952000
C	 -0.633759000	 -2.510303000	 1.727413000
H	 -1.578634000	 -2.587046000	 2.248907000
H	 0.159073000	 -3.021978000	 2.256771000
