10
0  1  0  1  0  1   5   5 -1.37432 -1.29375 -1.40163 -1.48220 -1.41502 -1.45110 -0.38984 -0.38735 -0.38082 -1.30942 -0.56202  0.35496 -0.10756 -0.99480
Cl	 -0.270506181	 -1.052956014	 -3.552016300
Cl	 0.432374819	 1.802412986	 -3.549631300
C	 0.105741819	 0.367968986	 -2.568733300
H	 0.986707819	 0.149550986	 -1.980489300
H	 -0.744000181	 0.577654986	 -1.933463300
Cl	 -0.204284000	 -0.797907000	 1.610498000
Cl	 -0.816759000	 -3.267882000	 0.138952000
C	 -0.633759000	 -2.510303000	 1.727413000
H	 -1.578634000	 -2.587046000	 2.248907000
H	 0.159073000	 -3.021978000	 2.256771000
