10
0  1  0  1  0  1   5   5  5.27625  6.12198  5.32370  4.47798  5.23458  4.79228 12.08760 12.08175 12.07017  6.31253 -9.41088 24.58608 -2.38311 -6.47957
Cl	 -0.833220977	 -3.336098252	 -1.414014877
Cl	 -0.224176977	 -0.862130252	 -2.882252877
C	 -0.386500977	 -1.628979252	 -1.297301877
H	 0.564812023	 -1.561615252	 -0.787101877
H	 -1.160333977	 -1.110919252	 -0.747398877
Cl	 0.345459000	 1.418918000	 1.445487000
Cl	 -0.362081000	 -1.434279000	 1.443480000
C	 -0.013034000	 -0.007166000	 2.429451000
H	 -0.885412000	 0.208441000	 3.032032000
H	 0.853362000	 -0.222187000	 3.040792000
