10
0  1  0  1  0  1   5   5 27.91675 30.57939 27.65982 24.99719 27.46596 26.00027 47.02294 47.00134 46.91024 29.08033 -37.66880 95.07581 -9.75322 -18.57346
Cl	 1.191928838	 -1.804997182	 -1.157002105
Cl	 1.900206838	 1.049035818	 -1.153108105
C	 1.090852838	 -0.266021182	 -0.291686105
H	 1.567732838	 -0.386749182	 0.671562895
H	 0.047120838	 -0.006111182	 -0.179134105
Cl	 0.345459000	 1.418918000	 1.445487000
Cl	 -0.362081000	 -1.434279000	 1.443480000
C	 -0.013034000	 -0.007166000	 2.429451000
H	 -0.885412000	 0.208441000	 3.032032000
H	 0.853362000	 -0.222187000	 3.040792000
