10
0  1  0  1  0  1   5   5 -2.56534 -2.16281 -2.56942 -2.97195 -2.64344 -2.83295  1.13841  1.14232  1.14329 -2.26010 -3.01169  5.12555 -0.67057 -3.70340
Cl	 -0.360486558	 -1.415726073	 -2.666955819
Cl	 0.342394442	 1.439642927	 -2.664570819
C	 0.015761442	 0.005198927	 -1.683672819
H	 0.896727442	 -0.213219073	 -1.095428819
H	 -0.833980558	 0.214884927	 -1.048402819
Cl	 0.345459000	 1.418918000	 1.445487000
Cl	 -0.362081000	 -1.434279000	 1.443480000
C	 -0.013034000	 -0.007166000	 2.429451000
H	 -0.885412000	 0.208441000	 3.032032000
H	 0.853362000	 -0.222187000	 3.040792000
