10
0  1  0  1  0  1   5   5 43.26821 46.22000 43.57774 40.62596 43.42453 41.74140 62.79872 62.78113 62.62656 45.68080 -50.13245 122.31311 -9.56840 -16.93146
Cl	 -0.495346812	 -1.959488927	 -1.951315858
Cl	 0.207534188	 0.895880073	 -1.948930858
C	 -0.119098812	 -0.538563927	 -0.968032858
H	 0.761867188	 -0.756981927	 -0.379788858
H	 -0.968840812	 -0.328877927	 -0.332762858
Cl	 -0.204284000	 -0.797907000	 1.610498000
Cl	 -0.816759000	 -3.267882000	 0.138952000
C	 -0.633759000	 -2.510303000	 1.727413000
H	 -1.578634000	 -2.587046000	 2.248907000
H	 0.159073000	 -3.021978000	 2.256771000
