10
0  1  0  1  0  1   5   5 -1.90277 -1.77734 -1.90596 -2.03140 -1.93893 -1.99172 -0.65570 -0.65023 -0.64866 -1.84206 -1.02640  0.69866 -0.20757 -1.30674
Cl	 -0.130830721	 -1.469576109	 -3.321896468
Cl	 0.572050279	 1.385792891	 -3.319511468
C	 0.245417279	 -0.048651109	 -2.338613468
H	 1.126383279	 -0.267069109	 -1.750369468
H	 -0.604324721	 0.161034891	 -1.703343468
Cl	 -1.679054000	 1.923612000	 0.886832000
Cl	 -2.392175000	 -0.928194000	 0.883289000
C	 -2.517578000	 0.617208000	 1.735716000
H	 -3.564948000	 0.878720000	 1.808259000
H	 -2.064347000	 0.502920000	 2.711489000
