10
0  1  0  1  0  1   5   5 -1.21209 -0.87989 -1.16739 -1.49958 -1.22286 -1.38257  1.75088  1.75039  1.75103 -0.84099 -2.51536  5.19281 -0.61387 -2.90457
Cl	 -0.894935611	 -3.586873416	 -1.866115435
Cl	 -0.285891611	 -1.112905416	 -3.334353435
C	 -0.448215611	 -1.879754416	 -1.749402435
H	 0.503097389	 -1.812390416	 -1.239202435
H	 -1.222048611	 -1.361694416	 -1.199499435
Cl	 0.345459000	 1.418918000	 1.445487000
Cl	 -0.362081000	 -1.434279000	 1.443480000
C	 -0.013034000	 -0.007166000	 2.429451000
H	 -0.885412000	 0.208441000	 3.032032000
H	 0.853362000	 -0.222187000	 3.040792000
