10
0  1  0  1  0  1   5   5 -2.43057 -2.16128 -2.40636 -2.67565 -2.47893 -2.59326  0.00037 -0.00146 -0.00289 -2.23896 -1.89338  2.62488 -0.52504 -2.44540
Cl	 -0.344297168	 -1.418439717	 -2.941735291
Cl	 0.358583832	 1.436929283	 -2.939350291
C	 0.031950832	 0.002485283	 -1.958452291
H	 0.912916832	 -0.215932717	 -1.370208291
H	 -0.817791168	 0.212171283	 -1.323182291
Cl	 -1.679054000	 1.923612000	 0.886832000
Cl	 -2.392175000	 -0.928194000	 0.883289000
C	 -2.517578000	 0.617208000	 1.735716000
H	 -3.564948000	 0.878720000	 1.808259000
H	 -2.064347000	 0.502920000	 2.711489000
