10
0  1  0  1  0  1   5   5 -1.38965 -1.30853 -1.41723 -1.49835 -1.43066 -1.46698 -0.40021 -0.39766 -0.39098 -1.32537 -0.57530  0.35881 -0.10827 -1.00062
Cl	 -0.447782897	 -1.767824889	 -3.550420245
Cl	 0.255098103	 1.087544111	 -3.548035245
C	 -0.071534897	 -0.346899889	 -2.567137245
H	 0.809431103	 -0.565317889	 -1.978893245
H	 -0.921276897	 -0.137213889	 -1.931867245
Cl	 0.801714000	 3.258659000	 0.160597000
Cl	 0.188697000	 0.786751000	 1.628667000
C	 0.609044000	 2.501307000	 1.747958000
H	 -0.190788000	 3.009448000	 2.270160000
H	 1.549018000	 2.582982000	 2.277479000
