10
0  1  0  1  0  1   5   5 37.69453 39.96010 37.64700 35.38143 37.49258 36.23519 53.32061 53.30783 53.22041 38.16346 -38.23020 101.58399 -10.11764 -15.07269
Cl	 -0.771506343	 -3.085323088	 -0.961914318
Cl	 -0.162462343	 -0.611355088	 -2.430152318
C	 -0.324786343	 -1.378204088	 -0.845201318
H	 0.626526657	 -1.310840088	 -0.335001318
H	 -1.098619343	 -0.860144088	 -0.295298318
Cl	 0.345459000	 1.418918000	 1.445487000
Cl	 -0.362081000	 -1.434279000	 1.443480000
C	 -0.013034000	 -0.007166000	 2.429451000
H	 -0.885412000	 0.208441000	 3.032032000
H	 0.853362000	 -0.222187000	 3.040792000
