10
0  1  0  1  0  1   5   5 -2.24710 -2.06354 -2.26956 -2.45312 -2.31037 -2.39102 -0.33899 -0.33472 -0.33028 -2.15182 -1.30455  1.34494 -0.25827 -1.93395
Cl	 -2.648444781	 -0.853512585	 -2.463169014
Cl	 -1.950973781	 2.003180415	 -2.459311014
C	 -1.801277781	 0.452176415	 -1.623574014
H	 -0.752204781	 0.194899415	 -1.567953014
H	 -2.229122781	 0.556344415	 -0.635801014
Cl	 0.345459000	 1.418918000	 1.445487000
Cl	 -0.362081000	 -1.434279000	 1.443480000
C	 -0.013034000	 -0.007166000	 2.429451000
H	 -0.885412000	 0.208441000	 3.032032000
H	 0.853362000	 -0.222187000	 3.040792000
