10
0  1  0  1  0  1   5   5 28.98096 31.73057 28.70765 25.95805 28.51529 26.99782 48.48393 48.46233 48.36975 30.21799 -39.59986 98.89691 -10.20867 -18.87039
Cl	 -0.361704879	 -1.420545985	 -1.585215785
Cl	 0.341176121	 1.434823015	 -1.582830785
C	 0.014543121	 0.000379015	 -0.601932785
H	 0.895509121	 -0.218038985	 -0.013688785
H	 -0.835198879	 0.210065015	 0.033337215
Cl	 0.345459000	 1.418918000	 1.445487000
Cl	 -0.362081000	 -1.434279000	 1.443480000
C	 -0.013034000	 -0.007166000	 2.429451000
H	 -0.885412000	 0.208441000	 3.032032000
H	 0.853362000	 -0.222187000	 3.040792000
