10
0  1  0  1  0  1   5   5  4.46295  5.72222  4.39117  3.13189  4.25618  3.59685 14.49651 14.48664 14.46447  5.59199 -13.24288 31.89667 -3.26555 -9.79625
Cl	 -0.361217551	 -1.418618020	 -2.017911799
Cl	 0.341663449	 1.436750980	 -2.015526799
C	 0.015030449	 0.002306980	 -1.034628799
H	 0.895996449	 -0.216111020	 -0.446384799
H	 -0.834711551	 0.211992980	 -0.399358799
Cl	 0.345459000	 1.418918000	 1.445487000
Cl	 -0.362081000	 -1.434279000	 1.443480000
C	 -0.013034000	 -0.007166000	 2.429451000
H	 -0.885412000	 0.208441000	 3.032032000
H	 0.853362000	 -0.222187000	 3.040792000
