10
0  1  0  1  0  1   5   5 -2.20968 -2.02525 -2.19971 -2.38414 -2.25041 -2.32786 -0.47094 -0.46814 -0.46846 -2.10049 -1.35459  1.36211 -0.32590 -1.78211
Cl	 -0.237563945	 -1.444007913	 -3.131815880
Cl	 0.465317055	 1.411361087	 -3.129430880
C	 0.138684055	 -0.023082913	 -2.148532880
H	 1.019650055	 -0.241500913	 -1.560288880
H	 -0.711057945	 0.186603087	 -1.513262880
Cl	 -1.679054000	 1.923612000	 0.886832000
Cl	 -2.392175000	 -0.928194000	 0.883289000
C	 -2.517578000	 0.617208000	 1.735716000
H	 -3.564948000	 0.878720000	 1.808259000
H	 -2.064347000	 0.502920000	 2.711489000
