10
0  1  0  1  0  1   5   5 -1.35402 -0.85991 -1.28107 -1.77517 -1.33614 -1.59089  2.80600  2.80875  2.80653 -0.84154 -3.34344  7.14364 -0.72961 -3.91213
Cl	 -0.382926497	 -1.506222470	 -2.751666079
Cl	 0.319954503	 1.349146530	 -2.749281079
C	 -0.006678497	 -0.085297470	 -1.768383079
H	 0.874287503	 -0.303715470	 -1.180139079
H	 -0.856420497	 0.124388530	 -1.133113079
Cl	 -0.204284000	 -0.797907000	 1.610498000
Cl	 -0.816759000	 -3.267882000	 0.138952000
C	 -0.633759000	 -2.510303000	 1.727413000
H	 -1.578634000	 -2.587046000	 2.248907000
H	 0.159073000	 -3.021978000	 2.256771000
