10
0  1  0  1  0  1   5   5 -2.38561 -1.99586 -2.35196 -2.74171 -2.44743 -2.61822  1.01748  1.01051  1.00895 -2.05958 -2.81120  4.99159 -0.86691 -3.37306
Cl	 -0.451030391	 -1.392871521	 -2.751654703
Cl	 0.251850609	 1.462497479	 -2.749269703
C	 -0.074782391	 0.028053479	 -1.768371703
H	 0.806183609	 -0.190364521	 -1.180127703
H	 -0.924524391	 0.237739479	 -1.133101703
Cl	 -1.679054000	 1.923612000	 0.886832000
Cl	 -2.392175000	 -0.928194000	 0.883289000
C	 -2.517578000	 0.617208000	 1.735716000
H	 -3.564948000	 0.878720000	 1.808259000
H	 -2.064347000	 0.502920000	 2.711489000
