10
0  1  0  1  0  1   5   5 -1.94987 -1.63668 -1.92189 -2.23507 -1.96188 -2.11812  0.92882  0.93291  0.93694 -1.65899 -1.90177  3.43451 -0.43084 -2.76090
Cl	 -0.364917028	 -1.433616088	 -2.947644718
Cl	 0.337963972	 1.421752912	 -2.945259718
C	 0.011330972	 -0.012691088	 -1.964361718
H	 0.892296972	 -0.231109088	 -1.376117718
H	 -0.838411028	 0.196994912	 -1.329091718
Cl	 0.801714000	 3.258659000	 0.160597000
Cl	 0.188697000	 0.786751000	 1.628667000
C	 0.609044000	 2.501307000	 1.747958000
H	 -0.190788000	 3.009448000	 2.270160000
H	 1.549018000	 2.582982000	 2.277479000
