10
0  1  0  1  0  1   5   5 27.95925 30.51588 27.64044 25.08381 27.43505 26.02970 46.40182 46.38641 46.27729 28.51277 -35.95768 94.67402 -12.48326 -17.72031
Cl	 -0.984696507	 -1.265030541	 -1.801251761
Cl	 -0.281815507	 1.590338459	 -1.798866761
C	 -0.608448507	 0.155894459	 -0.817968761
H	 0.272517493	 -0.062523541	 -0.229724761
H	 -1.458190507	 0.365580459	 -0.182698761
Cl	 -1.679054000	 1.923612000	 0.886832000
Cl	 -2.392175000	 -0.928194000	 0.883289000
C	 -2.517578000	 0.617208000	 1.735716000
H	 -3.564948000	 0.878720000	 1.808259000
H	 -2.064347000	 0.502920000	 2.711489000
