10
0  1  0  1  0  1   5   5  7.75095  9.50567  7.92948  6.17476  7.80070  6.85131 18.79723 18.78684 18.76457  9.98926 -17.20095 39.52427 -3.01272 -9.32134
Br	 -0.456156967	 -1.799036702	 -2.532036036
Br	 0.312230033	 1.315454298	 -2.529302036
C	 -0.046237967	 -0.249047702	 -1.479816036
H	 0.834934033	 -0.466949702	 -0.892915036
H	 -0.897246967	 -0.039644702	 -0.847364036
Br	 -0.192809000	 -0.754839000	 1.647524000
Br	 -0.860771000	 -3.446970000	 0.039177000
C	 -0.659072000	 -2.612973000	 1.755419000
H	 -1.603924000	 -2.689479000	 2.275990000
H	 0.133731000	 -3.125076000	 2.283443000
