10
0  1  0  1  0  1   5   5 -2.02520 -1.54420 -2.00271 -2.48370 -2.05393 -2.30279  1.56230  1.56259  1.56163 -1.49433 -2.30622  4.52256 -0.49461 -3.21606
Br	 -0.368296909	 -1.442212142	 -3.162386961
Br	 0.400090091	 1.672278858	 -3.159652961
C	 0.041622091	 0.107776858	 -2.110166961
H	 0.922794091	 -0.110125142	 -1.523265961
H	 -0.809386909	 0.317179858	 -1.477714961
Br	 -0.192809000	 -0.754839000	 1.647524000
Br	 -0.860771000	 -3.446970000	 0.039177000
C	 -0.659072000	 -2.612973000	 1.755419000
H	 -1.603924000	 -2.689479000	 2.275990000
H	 0.133731000	 -3.125076000	 2.283443000
