10
0  1  0  1  0  1   5   5  5.78892  7.68678  5.52763  3.62977  5.30427  4.32589 18.99767 18.98558 18.96114  7.47359 -17.49996 42.98813 -5.93387 -12.08072
Br	 0.033152533	 -1.653175639	 -2.220991504
Br	 0.801539533	 1.461315361	 -2.218257504
C	 0.443071533	 -0.103186639	 -1.168771504
H	 1.324243533	 -0.321088639	 -0.581870504
H	 -0.407937467	 0.106216361	 -0.536319504
Br	 2.472979000	 1.033369000	 0.854120000
Br	 1.705892000	 -2.079838000	 0.847120000
C	 2.596422000	 -0.650211000	 1.766274000
H	 2.132305000	 -0.537981000	 2.736631000
H	 3.643418000	 -0.908322000	 1.848582000
