10
0  1  0  1  0  1   5   5 35.23425 39.41422 34.62633 30.44635 34.34654 32.06598 61.28636 61.24912 61.18804 36.47471 -56.87844 131.88485 -14.61979 -23.91191
Br	 -0.393764756	 -1.549946033	 -1.646366135
Br	 0.374622244	 1.564544967	 -1.643632135
C	 0.016154244	 0.000042967	 -0.594146135
H	 0.897326244	 -0.217859033	 -0.007245135
H	 -0.834854756	 0.209445967	 0.038305865
Br	 0.377721000	 1.549726000	 1.434409000
Br	 -0.393013000	 -1.562582000	 1.428419000
C	 -0.013169000	 -0.007087000	 2.485715000
H	 -0.885771000	 0.207901000	 3.087328000
H	 0.853113000	 -0.222737000	 3.096162000
