10
0  1  0  1  0  1   5   5 -1.25737 -1.16672 -1.28644 -1.37709 -1.30467 -1.34550 -0.38185 -0.38174 -0.37928 -1.18134 -0.50532  0.30187 -0.08372 -0.89416
Br	 0.372499495	 1.564938779	 -4.435472704
Br	 1.038817495	 4.260543779	 -2.829167704
C	 0.605448495	 2.395484779	 -2.722698704
H	 1.416202495	 1.892413779	 -2.214767704
H	 -0.321271505	 2.298281779	 -2.175156704
Br	 0.377721000	 1.549726000	 1.434409000
Br	 -0.393013000	 -1.562582000	 1.428419000
C	 -0.013169000	 -0.007087000	 2.485715000
H	 -0.885771000	 0.207901000	 3.087328000
H	 0.853113000	 -0.222737000	 3.096162000
