10
0  1  0  1  0  1   5   5 34.09837 38.14057 33.56410 29.52190 33.28525 31.08406 59.33234 59.29527 59.23483 35.27477 -53.64513 125.59104 -13.34879 -23.32234
Br	 -1.936167574	 -1.171202763	 -1.233123132
Br	 -1.173013574	 1.944572237	 -1.228941132
C	 -1.022056574	 0.255059237	 -0.334322132
H	 0.026488426	 -0.001825763	 -0.279903132
H	 -1.452407574	 0.359145237	 0.651590868
Br	 0.377721000	 1.549726000	 1.434409000
Br	 -0.393013000	 -1.562582000	 1.428419000
C	 -0.013169000	 -0.007087000	 2.485715000
H	 -0.885771000	 0.207901000	 3.087328000
H	 0.853113000	 -0.222737000	 3.096162000
