10
0  1  0  1  0  1   5   5 -2.41209 -2.20468 -2.48424 -2.69165 -2.52819 -2.62101 -0.41870 -0.41668 -0.41269 -2.26285 -1.31413  1.08185 -0.08840 -1.94217
Br	 2.002739522	 -2.136367137	 -2.760832756
Br	 2.776359522	 0.976826863	 -2.756658756
C	 1.901801522	 -0.459792137	 -1.835320756
H	 2.379618522	 -0.579807137	 -0.873195756
H	 0.858297522	 -0.200628137	 -1.725792756
Br	 0.377721000	 1.549726000	 1.434409000
Br	 -0.393013000	 -1.562582000	 1.428419000
C	 -0.013169000	 -0.007087000	 2.485715000
H	 -0.885771000	 0.207901000	 3.087328000
H	 0.853113000	 -0.222737000	 3.096162000
