10
0  1  0  1  0  1   5   5 -2.93885 -2.62860 -3.01045 -3.32069 -3.07416 -3.21430 -0.17103 -0.16990 -0.16424 -2.69133 -2.01593  2.16621 -0.15182 -2.68979
Br	 -0.393365424	 -1.543370236	 -3.184690458
Br	 0.375021576	 1.571120764	 -3.181956458
C	 0.016553576	 0.006618764	 -2.132470458
H	 0.897725576	 -0.211283236	 -1.545569458
H	 -0.834455424	 0.216021764	 -1.500018458
Br	 0.377721000	 1.549726000	 1.434409000
Br	 -0.393013000	 -1.562582000	 1.428419000
C	 -0.013169000	 -0.007087000	 2.485715000
H	 -0.885771000	 0.207901000	 3.087328000
H	 0.853113000	 -0.222737000	 3.096162000
