10
0  1  0  1  0  1   5   5 46.63784 50.16043 46.30316 42.78057 46.07612 44.13943 67.79538 67.77652 67.70196 45.68159 -55.43053 136.82541 -15.97982 -19.73348
Br	 -0.798876251	 -3.194099470	 -0.988895536
Br	 -0.134307251	 -0.495247470	 -2.590466536
C	 -0.315085251	 -1.341648470	 -0.879176536
H	 0.636418749	 -1.274224470	 -0.370753536
H	 -1.090475251	 -0.825468470	 -0.331098536
Br	 0.377721000	 1.549726000	 1.434409000
Br	 -0.393013000	 -1.562582000	 1.428419000
C	 -0.013169000	 -0.007087000	 2.485715000
H	 -0.885771000	 0.207901000	 3.087328000
H	 0.853113000	 -0.222737000	 3.096162000
