10
0  1  0  1  0  1   5   5 -2.80838 -2.49419 -2.84273 -3.15692 -2.92949 -3.05998 -0.14650 -0.15231 -0.14995 -2.53884 -1.70168  2.21476 -0.48905 -2.56288
Br	 -0.293721541	 -1.568153225	 -3.160047029
Br	 0.474665459	 1.546337775	 -3.157313029
C	 0.116197459	 -0.018164225	 -2.107827029
H	 0.997369459	 -0.236066225	 -1.520926029
H	 -0.734811541	 0.191238775	 -1.475375029
Br	 -1.717373000	 2.071061000	 0.857992000
Br	 -2.491753000	 -1.040339000	 0.850998000
C	 -2.620957000	 0.641840000	 1.764946000
H	 -3.668136000	 0.902360000	 1.836616000
H	 -2.167412000	 0.526819000	 2.739966000
