10
0  1  0  1  0  1   5   5 -2.93074 -2.30885 -3.04730 -3.66919 -3.16079 -3.45363  2.21279  2.20800  2.21054 -2.35623 -3.85869  7.16887 -0.79625 -4.87016
Br	 1.681578469	 -2.059617292	 -2.187901355
Br	 2.455198469	 1.053576708	 -2.183727355
C	 1.580640469	 -0.383042292	 -1.262389355
H	 2.058457469	 -0.503057292	 -0.300264355
H	 0.537136469	 -0.123878292	 -1.152861355
Br	 0.377721000	 1.549726000	 1.434409000
Br	 -0.393013000	 -1.562582000	 1.428419000
C	 -0.013169000	 -0.007087000	 2.485715000
H	 -0.885771000	 0.207901000	 3.087328000
H	 0.853113000	 -0.222737000	 3.096162000
