10
0  1  0  1  0  1   5   5 -1.56496 -1.42460 -1.59057 -1.73093 -1.61960 -1.68297 -0.28107 -0.28152 -0.27916 -1.43783 -0.75448  0.70179 -0.11014 -1.27500
Br	 0.340451502	 1.434295237	 -4.204732931
Br	 1.006769502	 4.129900237	 -2.598427931
C	 0.573400502	 2.264841237	 -2.491958931
H	 1.384154502	 1.761770237	 -1.984027931
H	 -0.353319498	 2.167638237	 -1.944416931
Br	 0.377721000	 1.549726000	 1.434409000
Br	 -0.393013000	 -1.562582000	 1.428419000
C	 -0.013169000	 -0.007087000	 2.485715000
H	 -0.885771000	 0.207901000	 3.087328000
H	 0.853113000	 -0.222737000	 3.096162000
