10
0  1  0  1  0  1   5   5 34.53493 38.61443 33.98615 29.90664 33.70180 31.48087 59.99523 59.95777 59.89410 35.66923 -54.49533 127.35206 -13.66833 -23.51918
Br	 1.146310047	 -1.931700882	 -1.233015685
Br	 1.919930047	 1.181493118	 -1.228841685
C	 1.045372047	 -0.255125882	 -0.307503685
H	 1.523189047	 -0.375140882	 0.654621315
H	 0.001868047	 0.004038118	 -0.197975685
Br	 0.377721000	 1.549726000	 1.434409000
Br	 -0.393013000	 -1.562582000	 1.428419000
C	 -0.013169000	 -0.007087000	 2.485715000
H	 -0.885771000	 0.207901000	 3.087328000
H	 0.853113000	 -0.222737000	 3.096162000
