10
0  1  0  1  0  1   5   5 -1.28003 -0.53316 -1.21337 -1.96025 -1.28602 -1.67866  3.93015  3.92832  3.92155 -0.39653 -4.40736  9.46831 -0.87381 -4.58367
Br	 -0.388696269	 -1.525279258	 -2.947987264
Br	 0.379690731	 1.589211742	 -2.945253264
C	 0.021222731	 0.024709742	 -1.895767264
H	 0.902394731	 -0.193192258	 -1.308866264
H	 -0.829786269	 0.234112742	 -1.263315264
Br	 0.845307000	 3.442325000	 0.062778000
Br	 0.178318000	 0.743781000	 1.660750000
C	 0.632962000	 2.604368000	 1.775800000
H	 -0.167442000	 3.111159000	 2.297440000
H	 1.572670000	 2.685486000	 2.304916000
