10
0  1  0  1  0  1   5   5 -1.96737 -1.04549 -2.05846 -2.98034 -2.22766 -2.66230  5.01137  5.00097  5.00217 -0.99690 -6.13006 13.84620 -2.23793 -6.47511
Br	 -0.614041371	 -1.491308354	 -2.588491886
Br	 0.154345629	 1.623182646	 -2.585757886
C	 -0.204122371	 0.058680646	 -1.536271886
H	 0.677049629	 -0.159221354	 -0.949370886
H	 -1.055131371	 0.268083646	 -0.903819886
Br	 -1.717373000	 2.071061000	 0.857992000
Br	 -2.491753000	 -1.040339000	 0.850998000
C	 -2.620957000	 0.641840000	 1.764946000
H	 -3.668136000	 0.902360000	 1.836616000
H	 -2.167412000	 0.526819000	 2.739966000
