10
0  1  0  1  0  1   5   5 51.92344 56.23629 52.42640 48.11355 52.21397 49.80184 75.88054 75.85692 75.75837 53.56219 -70.99401 157.20451 -13.08938 -19.55894
Br	 -0.514730339	 -2.036919742	 -2.111802086
Br	 0.253656661	 1.077571258	 -2.109068086
C	 -0.104811339	 -0.486930742	 -1.059582086
H	 0.776360661	 -0.704832742	 -0.472681086
H	 -0.955820339	 -0.277527742	 -0.427130086
Br	 -0.192809000	 -0.754839000	 1.647524000
Br	 -0.860771000	 -3.446970000	 0.039177000
C	 -0.659072000	 -2.612973000	 1.755419000
H	 -1.603924000	 -2.689479000	 2.275990000
H	 0.133731000	 -3.125076000	 2.283443000
