10
0  1  0  1  0  1   5   5 51.73810 56.05028 52.23617 47.92399 52.02277 49.61106 75.69356 75.66992 75.57012 53.34807 -71.15327 157.31518 -13.22423 -19.58960
Br	 -0.272113978	 -1.057226251	 -2.104341253
Br	 0.496273022	 2.057264749	 -2.101607253
C	 0.137805022	 0.492762749	 -1.052121253
H	 1.018977022	 0.274860749	 -0.465220253
H	 -0.713203978	 0.702165749	 -0.419669253
Br	 0.845307000	 3.442325000	 0.062778000
Br	 0.178318000	 0.743781000	 1.660750000
C	 0.632962000	 2.604368000	 1.775800000
H	 -0.167442000	 3.111159000	 2.297440000
H	 1.572670000	 2.685486000	 2.304916000
