10
0  1  0  1  0  1   5   5 -2.42050 -2.20434 -2.45620 -2.67236 -2.51480 -2.60519 -0.50979 -0.51176 -0.51010 -2.25329 -1.23666  1.13992 -0.28389 -1.87267
Br	 -0.609593021	 -1.489028181	 -3.367894671
Br	 0.158793979	 1.625462819	 -3.365160671
C	 -0.199674021	 0.060960819	 -2.315674671
H	 0.681497979	 -0.156941181	 -1.728773671
H	 -1.050683021	 0.270363819	 -1.683222671
Br	 2.472979000	 1.033369000	 0.854120000
Br	 1.705892000	 -2.079838000	 0.847120000
C	 2.596422000	 -0.650211000	 1.766274000
H	 2.132305000	 -0.537981000	 2.736631000
H	 3.643418000	 -0.908322000	 1.848582000
