10
0  1  0  1  0  1   5   5 -1.15457 -0.61462 -1.17272 -1.71266 -1.25798 -1.52141  3.07985  3.07355  3.07220 -0.50688 -3.64911  7.90796 -0.83801 -3.92772
Br	 0.244307522	 1.042364612	 -3.512513612
Br	 0.910625522	 3.737969612	 -1.906208612
C	 0.477256522	 1.872910612	 -1.799739612
H	 1.288010522	 1.369839612	 -1.291808612
H	 -0.449463478	 1.775707612	 -1.252197612
Br	 0.377721000	 1.549726000	 1.434409000
Br	 -0.393013000	 -1.562582000	 1.428419000
C	 -0.013169000	 -0.007087000	 2.485715000
H	 -0.885771000	 0.207901000	 3.087328000
H	 0.853113000	 -0.222737000	 3.096162000
