10
0  1  0  1  0  1   5   5  7.71940  9.47608  7.89519  6.13850  7.76581  6.81556 18.78319 18.77280 18.75036  9.95672 -17.28976 39.63288 -3.03931 -9.34709
Br	 -0.330405124	 -1.291252754	 -2.526164258
Br	 0.437981876	 1.823238246	 -2.523430258
C	 0.079513876	 0.258736246	 -1.473944258
H	 0.960685876	 0.040834246	 -0.887043258
H	 -0.771495124	 0.468139246	 -0.841492258
Br	 0.845307000	 3.442325000	 0.062778000
Br	 0.178318000	 0.743781000	 1.660750000
C	 0.632962000	 2.604368000	 1.775800000
H	 -0.167442000	 3.111159000	 2.297440000
H	 1.572670000	 2.685486000	 2.304916000
