10
0  1  0  1  0  1   5   5 -1.46817 -1.34602 -1.51530 -1.63744 -1.53103 -1.59092 -0.23567 -0.23440 -0.23054 -1.33253 -0.56362  0.47887 -0.07929 -1.16850
Br	 -0.280436852	 -1.085387582	 -3.792737886
Br	 0.487950148	 2.029103418	 -3.790003886
C	 0.129482148	 0.464601418	 -2.740517886
H	 1.010654148	 0.246699418	 -2.153616886
H	 -0.721526852	 0.674004418	 -2.108065886
Br	 -0.192809000	 -0.754839000	 1.647524000
Br	 -0.860771000	 -3.446970000	 0.039177000
C	 -0.659072000	 -2.612973000	 1.755419000
H	 -1.603924000	 -2.689479000	 2.275990000
H	 0.133731000	 -3.125076000	 2.283443000
