10
0  1  0  1  0  1   5   5 -2.09499 -1.20059 -2.24443 -3.13883 -2.38663 -2.82203  4.91793  4.90772  4.90646 -1.23257 -6.09012 12.84553 -1.39826 -6.58971
Br	 -2.364757137	 -1.062145376	 -1.997726793
Br	 -1.601603137	 2.053629624	 -1.993544793
C	 -1.450646137	 0.364116624	 -1.098925793
H	 -0.402101137	 0.107231624	 -1.044506793
H	 -1.880997137	 0.468202624	 -0.113012793
Br	 0.377721000	 1.549726000	 1.434409000
Br	 -0.393013000	 -1.562582000	 1.428419000
C	 -0.013169000	 -0.007087000	 2.485715000
H	 -0.885771000	 0.207901000	 3.087328000
H	 0.853113000	 -0.222737000	 3.096162000
