10
0  1  0  1  0  1   5   5 -1.25975 -0.51462 -1.19197 -1.93710 -1.26428 -1.65608  3.93553  3.93366  3.92695 -0.37713 -4.36626  9.42279 -0.86687 -4.56679
Br	 -0.397583595	 -1.561153662	 -2.952269986
Br	 0.370803405	 1.553337338	 -2.949535986
C	 0.012335405	 -0.011164662	 -1.900049986
H	 0.893507405	 -0.229066662	 -1.313148986
H	 -0.838673595	 0.198238338	 -1.267597986
Br	 -0.192809000	 -0.754839000	 1.647524000
Br	 -0.860771000	 -3.446970000	 0.039177000
C	 -0.659072000	 -2.612973000	 1.755419000
H	 -1.603924000	 -2.689479000	 2.275990000
H	 0.133731000	 -3.125076000	 2.283443000
