10
0  1  0  1  0  1   5   5 -3.03170 -2.60212 -3.12611 -3.55569 -3.21183 -3.40901  0.70820  0.70723  0.71106 -2.66107 -2.54910  3.86382 -0.40604 -3.56974
Br	 1.788632153	 -2.085200574	 -2.378878489
Br	 2.562252153	 1.027993426	 -2.374704489
C	 1.687694153	 -0.408625574	 -1.453366489
H	 2.165511153	 -0.528640574	 -0.491241489
H	 0.644190153	 -0.149461574	 -1.343838489
Br	 0.377721000	 1.549726000	 1.434409000
Br	 -0.393013000	 -1.562582000	 1.428419000
C	 -0.013169000	 -0.007087000	 2.485715000
H	 -0.885771000	 0.207901000	 3.087328000
H	 0.853113000	 -0.222737000	 3.096162000
