10
0  1  0  1  0  1   5   5 -1.86169 -1.51917 -1.87766 -2.22018 -1.94155 -2.10221  0.96861  0.96483  0.96584 -1.48412 -2.01008  3.60048 -0.39554 -2.67898
Br	 0.276355515	 1.173008154	 -3.743253385
Br	 0.942673515	 3.868613154	 -2.136948385
C	 0.509304515	 2.003554154	 -2.030479385
H	 1.320058515	 1.500483154	 -1.522548385
H	 -0.417415485	 1.906351154	 -1.482937385
Br	 0.377721000	 1.549726000	 1.434409000
Br	 -0.393013000	 -1.562582000	 1.428419000
C	 -0.013169000	 -0.007087000	 2.485715000
H	 -0.885771000	 0.207901000	 3.087328000
H	 0.853113000	 -0.222737000	 3.096162000
