10
0  1  0  1  0  1   5   5 -2.76640 -2.47244 -2.84721 -3.14116 -2.90823 -3.04127 -0.07188 -0.07050 -0.06665 -2.53351 -1.77801  2.00386 -0.16456 -2.59480
Br	 -2.686199310	 -0.980352336	 -2.571179538
Br	 -1.923045310	 2.135422664	 -2.566997538
C	 -1.772088310	 0.445909664	 -1.672378538
H	 -0.723543310	 0.189024664	 -1.617959538
H	 -2.202439310	 0.549995664	 -0.686465538
Br	 0.377721000	 1.549726000	 1.434409000
Br	 -0.393013000	 -1.562582000	 1.428419000
C	 -0.013169000	 -0.007087000	 2.485715000
H	 -0.885771000	 0.207901000	 3.087328000
H	 0.853113000	 -0.222737000	 3.096162000
