10
0  1  0  1  0  1   5   5  7.52124  8.89890  7.44845  6.07079  7.31165  6.58883 17.02176 17.00845 16.99556  8.98970 -13.98579 35.21551 -3.62498 -8.61503
Br	 0.180211536	 0.781077529	 -3.051034066
Br	 0.846529536	 3.476682529	 -1.444729066
C	 0.413160536	 1.611623529	 -1.338260066
H	 1.223914536	 1.108552529	 -0.830329066
H	 -0.513559464	 1.514420529	 -0.790718066
Br	 0.377721000	 1.549726000	 1.434409000
Br	 -0.393013000	 -1.562582000	 1.428419000
C	 -0.013169000	 -0.007087000	 2.485715000
H	 -0.885771000	 0.207901000	 3.087328000
H	 0.853113000	 -0.222737000	 3.096162000
