10
0  1  0  1  0  1   5   5 -1.98526 -1.07667 -2.07929 -2.98788 -2.24480 -2.67360  4.91845  4.90787  4.90976 -1.03986 -6.08611 13.63685 -2.16899 -6.42161
Br	 -0.181095985	 -1.598459820	 -2.603292560
Br	 0.587291015	 1.516031180	 -2.600558560
C	 0.228823015	 -0.048470820	 -1.551072560
H	 1.109995015	 -0.266372820	 -0.964171560
H	 -0.622185985	 0.160932180	 -0.918620560
Br	 2.472979000	 1.033369000	 0.854120000
Br	 1.705892000	 -2.079838000	 0.847120000
C	 2.596422000	 -0.650211000	 1.766274000
H	 2.132305000	 -0.537981000	 2.736631000
H	 3.643418000	 -0.908322000	 1.848582000
