10
0  1  0  1  0  1   5   5 34.65771 38.57618 33.98087 30.06240 33.68749 31.55202 59.72410 59.70978 59.61564 35.42415 -52.13164 126.62516 -16.32678 -22.74258
Br	 0.247401051	 -1.707891459	 -1.838690448
Br	 1.015788051	 1.406599541	 -1.835956448
C	 0.657320051	 -0.157902459	 -0.786470448
H	 1.538492051	 -0.375804459	 -0.199569448
H	 -0.193688949	 0.051500541	 -0.154018448
Br	 2.472979000	 1.033369000	 0.854120000
Br	 1.705892000	 -2.079838000	 0.847120000
C	 2.596422000	 -0.650211000	 1.766274000
H	 2.132305000	 -0.537981000	 2.736631000
H	 3.643418000	 -0.908322000	 1.848582000
