10
0  1  0  1  0  1   5   5  5.90266  7.82146  5.64523  3.72644  5.41907  4.42960 19.21888 19.20760 19.18173  7.62155 -17.59643 43.41846 -6.05487 -12.14561
Br	 -0.827587924	 -1.440078440	 -2.207455124
Br	 -0.059200924	 1.674412560	 -2.204721124
C	 -0.417668924	 0.109910560	 -1.155235124
H	 0.463503076	 -0.107991440	 -0.568334124
H	 -1.268677924	 0.319313560	 -0.522783124
Br	 -1.717373000	 2.071061000	 0.857992000
Br	 -2.491753000	 -1.040339000	 0.850998000
C	 -2.620957000	 0.641840000	 1.764946000
H	 -3.668136000	 0.902360000	 1.836616000
H	 -2.167412000	 0.526819000	 2.739966000
