10
0  1  0  1  0  1   5   5 -1.28430 -1.19142 -1.31391 -1.40679 -1.33253 -1.37437 -0.38889 -0.38875 -0.38616 -1.20631 -0.52672  0.31563 -0.08183 -0.91340
Br	 -1.053312092	 -4.219448796	 -2.836643472
Br	 -0.388743092	 -1.520596796	 -4.438214472
C	 -0.569521092	 -2.366997796	 -2.726924472
H	 0.381982908	 -2.299573796	 -2.218501472
H	 -1.344911092	 -1.850817796	 -2.178846472
Br	 0.377721000	 1.549726000	 1.434409000
Br	 -0.393013000	 -1.562582000	 1.428419000
C	 -0.013169000	 -0.007087000	 2.485715000
H	 -0.885771000	 0.207901000	 3.087328000
H	 0.853113000	 -0.222737000	 3.096162000
