10
0  1  0  1  0  1   5   5 -2.54793 -2.33168 -2.61259 -2.82884 -2.65753 -2.75427 -0.52836 -0.52633 -0.52088 -2.39076 -1.51571  1.13937 -0.02389 -1.99053
Br	 -0.393308377	 -1.542430837	 -3.404451075
Br	 0.375078623	 1.572060163	 -3.401717075
C	 0.016610623	 0.007558163	 -2.352231075
H	 0.897782623	 -0.210343837	 -1.765330075
H	 -0.834398377	 0.216961163	 -1.719779075
Br	 0.377721000	 1.549726000	 1.434409000
Br	 -0.393013000	 -1.562582000	 1.428419000
C	 -0.013169000	 -0.007087000	 2.485715000
H	 -0.885771000	 0.207901000	 3.087328000
H	 0.853113000	 -0.222737000	 3.096162000
