10
0  1  0  1  0  1   5   5 -1.83571 -1.61686 -1.85587 -2.07471 -1.90041 -2.00031  0.06415  0.06236  0.06443 -1.61791 -1.18919  1.60462 -0.19333 -1.84001
Br	 0.308403509	 1.303651695	 -3.973993158
Br	 0.974721509	 3.999256695	 -2.367688158
C	 0.541352509	 2.134197695	 -2.261219158
H	 1.352106509	 1.631126695	 -1.753288158
H	 -0.385367491	 2.036994695	 -1.713677158
Br	 0.377721000	 1.549726000	 1.434409000
Br	 -0.393013000	 -1.562582000	 1.428419000
C	 -0.013169000	 -0.007087000	 2.485715000
H	 -0.885771000	 0.207901000	 3.087328000
H	 0.853113000	 -0.222737000	 3.096162000
