10
0  1  0  1  0  1   5   5  5.35856  7.27389  5.08967  3.17434  4.88351  3.88648 18.68528 18.65881 18.63766  7.05040 -17.70367 41.39368 -4.25154 -12.38806
Br	 -2.150462356	 -1.116674069	 -1.615424962
Br	 -1.387308356	 1.999100931	 -1.611242962
C	 -1.236351356	 0.309587931	 -0.716623962
H	 -0.187806356	 0.052702931	 -0.662204962
H	 -1.666702356	 0.413673931	 0.269289038
Br	 0.377721000	 1.549726000	 1.434409000
Br	 -0.393013000	 -1.562582000	 1.428419000
C	 -0.013169000	 -0.007087000	 2.485715000
H	 -0.885771000	 0.207901000	 3.087328000
H	 0.853113000	 -0.222737000	 3.096162000
