11
1  1  1  1  0  1   8   3 -18.16983 -17.69052 -17.83804 -18.31735 -17.87277 -18.14548 -15.74332 -15.75363 -15.79081 -17.21343 -21.49796 17.98500 -9.98676 -3.71372
N	 -0.371307285	 0.901836758	 1.072568040
H	 -0.645094285	 0.093953758	 1.629468040
H	 -1.114770285	 1.065002758	 0.395507040
H	 0.499186715	 0.658202758	 0.549511040
C	 -0.151790285	 2.103540758	 1.934679040
H	 0.135491715	 2.930934758	 1.297149040
H	 -1.068471285	 2.333453758	 2.464515040
H	 0.644366715	 1.878835758	 2.634106040
O	 1.989162000	 0.398945000	 -0.221685000
H	 2.334509000	 0.946046000	 -0.933424000
H	 2.770717000	 0.044319000	 0.212559000
