11
1  1  1  1  0  1   8   3 -15.58721 -15.25746 -15.28600 -15.61576 -15.31115 -15.49698 -13.90869 -13.90243 -13.92549 -14.98985 -16.19645  8.48343 -4.75723 -2.51960
N	 -0.635097000	 -0.241601000	 0.273162000
H	 -0.701594000	 -1.189162000	 0.641236000
H	 -1.171272000	 -0.218097000	 -0.592711000
H	 0.365437000	 -0.049953000	 0.043146000
C	 -1.152753000	 0.758203000	 1.257002000
H	 -1.060655000	 1.744724000	 0.818995000
H	 -2.190130000	 0.536315000	 1.477240000
H	 -0.551778000	 0.692606000	 2.155936000
O	 1.277422393	 1.156779465	 -1.242071883
H	 1.131671393	 1.695546465	 -2.025425883
H	 2.234052393	 1.114959465	 -1.151159883
