11
1  1  1  1  0  1   8   3 -15.51662 -15.04112 -15.20184 -15.67734 -15.23054 -15.50291 -12.94803 -12.94868 -12.98203 -14.47044 -18.68738 17.93430 -9.87958 -3.83779
N	 0.130853726	 -0.940303291	 1.232078107
H	 0.523213726	 -1.811496291	 1.585416107
H	 -0.663813274	 -1.186231291	 0.644035107
H	 0.850020726	 -0.477545291	 0.632613107
C	 -0.283200274	 -0.040318291	 2.351946107
H	 -0.692217274	 0.867275709	 1.924707107
H	 -1.027965274	 -0.544154291	 2.956401107
H	 0.593885726	 0.189818709	 2.944664107
O	 1.989162000	 0.398945000	 -0.221685000
H	 2.334509000	 0.946046000	 -0.933424000
H	 2.770717000	 0.044319000	 0.212559000
