11
1  1  1  1  0  1   8   3  5.21792  6.45202  5.91355  4.67944  5.84542  5.14177 11.51903 11.50124 11.43114  5.32900 -43.93729 84.39092 -25.15142 -9.97320
N	 -0.635097000	 -0.241601000	 0.273162000
H	 -0.701594000	 -1.189162000	 0.641236000
H	 -1.171272000	 -0.218097000	 -0.592711000
H	 0.365437000	 -0.049953000	 0.043146000
C	 -1.152753000	 0.758203000	 1.257002000
H	 -1.060655000	 1.744724000	 0.818995000
H	 -2.190130000	 0.536315000	 1.477240000
H	 -0.551778000	 0.692606000	 2.155936000
O	 1.516486720	 -0.368131827	 0.613053661
H	 2.262538720	 0.025346173	 0.150735661
H	 1.915690720	 -0.955899827	 1.261374661
