11
1  1  1  1  0  1   8   3 -15.51654 -14.96220 -15.06958 -15.62392 -15.09828 -15.41605 -12.69137 -12.69762 -12.73052 -14.51671 -23.73166 23.20621 -9.79390 -4.19735
N	 -0.635097000	 -0.241601000	 0.273162000
H	 -0.701594000	 -1.189162000	 0.641236000
H	 -1.171272000	 -0.218097000	 -0.592711000
H	 0.365437000	 -0.049953000	 0.043146000
C	 -1.152753000	 0.758203000	 1.257002000
H	 -1.060655000	 1.744724000	 0.818995000
H	 -2.190130000	 0.536315000	 1.477240000
H	 -0.551778000	 0.692606000	 2.155936000
O	 1.597303933	 -0.677058249	 -0.919218184
H	 1.862284933	 -0.374845249	 -1.793065184
H	 2.298504933	 -1.276573249	 -0.647087184
