11
1  1  1  1  0  1   8   3 -16.56916 -15.90650 -16.16597 -16.82864 -16.20792 -16.58202 -13.12292 -13.14239 -13.17853 -15.55203 -28.13584 33.93448 -15.95459 -5.39608
N	 -0.050655980	 -1.105449237	 -0.629110791
H	 0.170885020	 -2.068884237	 -0.383173791
H	 -0.298805980	 -1.097807237	 -1.617106791
H	 0.811828020	 -0.529875237	 -0.504448791
C	 -1.166778980	 -0.575442237	 0.212838209
H	 -1.362723980	 0.446820763	 -0.087395791
H	 -2.046889980	 -1.189672237	 0.064460209
H	 -0.853832980	 -0.605311237	 1.249529209
O	 1.989162000	 0.398945000	 -0.221685000
H	 2.334509000	 0.946046000	 -0.933424000
H	 2.770717000	 0.044319000	 0.212559000
