11
1  1  1  1  0  1   8   3 -15.27893 -15.00496 -15.02430 -15.29826 -15.04471 -15.19879 -13.93527 -13.92697 -13.94474 -14.79636 -14.77184  6.04029 -3.97133 -2.09348
N	 -0.635097000	 -0.241601000	 0.273162000
H	 -0.701594000	 -1.189162000	 0.641236000
H	 -1.171272000	 -0.218097000	 -0.592711000
H	 0.365437000	 -0.049953000	 0.043146000
C	 -1.152753000	 0.758203000	 1.257002000
H	 -1.060655000	 1.744724000	 0.818995000
H	 -2.190130000	 0.536315000	 1.477240000
H	 -0.551778000	 0.692606000	 2.155936000
O	 2.174229417	 -0.549948299	 0.938715181
H	 2.920281417	 -0.156470299	 0.476397181
H	 2.573433417	 -1.137716299	 1.587036181
