11
1  1  1  1  0  1   8   3 -15.59674 -15.20076 -15.24698 -15.64296 -15.27675 -15.49996 -13.52253 -13.51849 -13.54573 -14.87025 -17.94438 11.88628 -5.77282 -3.03932
N	 -0.635097000	 -0.241601000	 0.273162000
H	 -0.701594000	 -1.189162000	 0.641236000
H	 -1.171272000	 -0.218097000	 -0.592711000
H	 0.365437000	 -0.049953000	 0.043146000
C	 -1.152753000	 0.758203000	 1.257002000
H	 -1.060655000	 1.744724000	 0.818995000
H	 -2.190130000	 0.536315000	 1.477240000
H	 -0.551778000	 0.692606000	 2.155936000
O	 1.233994518	 1.099316014	 -1.180871032
H	 1.088243518	 1.638083014	 -1.964225032
H	 2.190624518	 1.057496014	 -1.089959032
