11
1  1  1  1  0  1   8   3 -17.89556 -17.48671 -17.59625 -18.00510 -17.62252 -17.86181 -15.70582 -15.71196 -15.75489 -17.03126 -19.53238 14.05474 -8.39327 -3.16035
N	 -0.246878310	 -1.260252610	 -0.676238089
H	 -0.025337310	 -2.223687610	 -0.430301089
H	 -0.495028310	 -1.252610610	 -1.664234089
H	 0.615605690	 -0.684678610	 -0.551576089
C	 -1.363001310	 -0.730245610	 0.165710911
H	 -1.558946310	 0.292017390	 -0.134523089
H	 -2.243112310	 -1.344475610	 0.017332911
H	 -1.050055310	 -0.760114610	 1.202401911
O	 1.989162000	 0.398945000	 -0.221685000
H	 2.334509000	 0.946046000	 -0.933424000
H	 2.770717000	 0.044319000	 0.212559000
