11
1  1  1  1  0  1   8   3 -18.36721 -17.81789 -18.02340 -18.57272 -18.05422 -18.36975 -15.71374 -15.72210 -15.75948 -17.29702 -23.93761 22.87733 -11.94327 -4.29348
N	 -0.554373512	 -0.219284036	 0.259995927
H	 -0.620870512	 -1.166845036	 0.628069927
H	 -1.090548512	 -0.195780036	 -0.605877073
H	 0.446160488	 -0.027636036	 0.029979927
C	 -1.072029512	 0.780519964	 1.243835927
H	 -0.979931512	 1.767040964	 0.805828927
H	 -2.109406512	 0.558631964	 1.464073927
H	 -0.471054512	 0.714922964	 2.142769927
O	 1.989162000	 0.398945000	 -0.221685000
H	 2.334509000	 0.946046000	 -0.933424000
H	 2.770717000	 0.044319000	 0.212559000
