11
1  1  1  1  0  1   8   3 -14.86982 -14.31071 -14.52658 -15.08569 -14.55970 -14.87658 -11.84545 -11.84958 -11.87991 -13.73858 -21.07192 24.18876 -12.27076 -4.58465
N	 0.187810790	 -0.896478777	 1.189363202
H	 0.580170790	 -1.767671777	 1.542701202
H	 -0.606856210	 -1.142406777	 0.601320202
H	 0.906977790	 -0.433720777	 0.589898202
C	 -0.226243210	 0.003506223	 2.309231202
H	 -0.635260210	 0.911100223	 1.881992202
H	 -0.971008210	 -0.500329777	 2.913686202
H	 0.650842790	 0.233643223	 2.901949202
O	 1.989162000	 0.398945000	 -0.221685000
H	 2.334509000	 0.946046000	 -0.933424000
H	 2.770717000	 0.044319000	 0.212559000
