11
1  1  1  1  0  1   8   3 -15.64806 -15.24257 -15.36092 -15.76641 -15.38599 -15.62114 -13.48642 -13.48452 -13.52059 -14.71949 -16.71014 13.21682 -8.01208 -3.21410
N	 -0.727997527	 0.671609503	 -0.829379872
H	 -1.221906527	 -0.196135497	 -0.627277872
H	 -0.848385527	 0.860535503	 -1.823153872
H	 0.288868473	 0.518879503	 -0.646723872
C	 -1.251670527	 1.798211503	 0.002516128
H	 -0.696255527	 2.693407503	 -0.249859872
H	 -2.306030527	 1.934466503	 -0.206412872
H	 -1.100957527	 1.548540503	 1.045831128
O	 1.989162000	 0.398945000	 -0.221685000
H	 2.334509000	 0.946046000	 -0.933424000
H	 2.770717000	 0.044319000	 0.212559000
