11
1  1  1  1  0  1   8   3 -15.58735 -15.25759 -15.28615 -15.61591 -15.31130 -15.49713 -13.90879 -13.90253 -13.92559 -14.98997 -16.19662  8.48371 -4.75741 -2.51966
N	 -0.635097000	 -0.241601000	 0.273162000
H	 -0.701594000	 -1.189162000	 0.641236000
H	 -1.171272000	 -0.218097000	 -0.592711000
H	 0.365437000	 -0.049953000	 0.043146000
C	 -1.152753000	 0.758203000	 1.257002000
H	 -1.060655000	 1.744724000	 0.818995000
H	 -2.190130000	 0.536315000	 1.477240000
H	 -0.551778000	 0.692606000	 2.155936000
O	 2.092011580	 -0.527221240	 0.898007491
H	 2.838063580	 -0.133743240	 0.435689491
H	 2.491215580	 -1.114989240	 1.546328491
