11
1  1  1  1  0  1   8   3 -17.61491 -17.26590 -17.34928 -17.69830 -17.37276 -17.57799 -15.89364 -15.89506 -15.93543 -16.86558 -17.42258  9.85287 -6.68026 -2.61561
N	 -0.520304814	 0.927762534	 1.149687644
H	 -0.794091814	 0.119879534	 1.706587644
H	 -1.263767814	 1.090928534	 0.472626644
H	 0.350189186	 0.684128534	 0.626630644
C	 -0.300787814	 2.129466534	 2.011798644
H	 -0.013505814	 2.956860534	 1.374268644
H	 -1.217468814	 2.359379534	 2.541634644
H	 0.495369186	 1.904761534	 2.711225644
O	 1.989162000	 0.398945000	 -0.221685000
H	 2.334509000	 0.946046000	 -0.933424000
H	 2.770717000	 0.044319000	 0.212559000
