11
1  1  1  1  0  1   8   3  0.93498  2.27975  1.62658  0.28182  1.55705  0.77780  6.36273  6.32523  6.22565 -0.35097 -47.99588 99.43797 -40.61901 -11.17405
N	 -0.148320482	 -0.107025869	 0.193768315
H	 -0.214817482	 -1.054586869	 0.561842315
H	 -0.684495482	 -0.083521869	 -0.672104685
H	 0.852213518	 0.084622131	 -0.036247685
C	 -0.665976482	 0.892778131	 1.177608315
H	 -0.573878482	 1.879299131	 0.739601315
H	 -1.703353482	 0.670890131	 1.397846315
H	 -0.065001482	 0.827181131	 2.076542315
O	 1.989162000	 0.398945000	 -0.221685000
H	 2.334509000	 0.946046000	 -0.933424000
H	 2.770717000	 0.044319000	 0.212559000
