11
1  1  1  1  0  1   8   3 -12.81152 -12.09439 -12.22252 -12.93965 -12.29108 -12.68214 -8.48113 -8.49446 -8.53263 -11.75686 -26.51343 30.18379 -9.43960 -5.98762
N	 -0.635097000	 -0.241601000	 0.273162000
H	 -0.701594000	 -1.189162000	 0.641236000
H	 -1.171272000	 -0.218097000	 -0.592711000
H	 0.365437000	 -0.049953000	 0.043146000
C	 -1.152753000	 0.758203000	 1.257002000
H	 -1.060655000	 1.744724000	 0.818995000
H	 -2.190130000	 0.536315000	 1.477240000
H	 -0.551778000	 0.692606000	 2.155936000
O	 1.386760583	 1.183256590	 0.624780055
H	 1.661496583	 1.949461590	 0.112328055
H	 2.097692583	 1.047729590	 1.258312055
