11
1  1  1  1  0  1   8   3  8.22321  9.61180  8.89334  7.50475  8.82406  8.01836 14.37886 14.34688 14.24501  6.69309 -43.12353 103.46160 -41.89018 -11.75480
N	 0.472596108	 -0.677356204	 0.975788675
H	 0.864956108	 -1.548549204	 1.329126675
H	 -0.322070892	 -0.923284204	 0.387745675
H	 1.191763108	 -0.214598204	 0.376323675
C	 0.058542108	 0.222628796	 2.095656675
H	 -0.350474892	 1.130222796	 1.668417675
H	 -0.686222892	 -0.281207204	 2.700111675
H	 0.935628108	 0.452765796	 2.688374675
O	 1.989162000	 0.398945000	 -0.221685000
H	 2.334509000	 0.946046000	 -0.933424000
H	 2.770717000	 0.044319000	 0.212559000
