11
1  1  1  1  0  1   8   3 -15.52091 -15.04634 -15.20646 -15.68103 -15.23512 -15.50700 -12.95756 -12.95817 -12.99156 -14.47601 -18.66089 17.86835 -9.85397 -3.82950
N	 -0.647031169	 0.665898337	 -0.809139926
H	 -1.140940169	 -0.201846663	 -0.607037926
H	 -0.767419169	 0.854824337	 -1.802913926
H	 0.369834831	 0.513168337	 -0.626483926
C	 -1.170704169	 1.792500337	 0.022756074
H	 -0.615289169	 2.687696337	 -0.229619926
H	 -2.225064169	 1.928755337	 -0.186172926
H	 -1.019991169	 1.542829337	 1.066071074
O	 1.989162000	 0.398945000	 -0.221685000
H	 2.334509000	 0.946046000	 -0.933424000
H	 2.770717000	 0.044319000	 0.212559000
