11
1  1  1  1  0  1   8   3 -15.27879 -15.00483 -15.02416 -15.29812 -15.04457 -15.19865 -13.93517 -13.92687 -13.94464 -14.79623 -14.77169  6.04008 -3.97119 -2.09343
N	 -0.635097000	 -0.241601000	 0.273162000
H	 -0.701594000	 -1.189162000	 0.641236000
H	 -1.171272000	 -0.218097000	 -0.592711000
H	 0.365437000	 -0.049953000	 0.043146000
C	 -1.152753000	 0.758203000	 1.257002000
H	 -1.060655000	 1.744724000	 0.818995000
H	 -2.190130000	 0.536315000	 1.477240000
H	 -0.551778000	 0.692606000	 2.155936000
O	 1.320850269	 1.214242916	 -1.303272735
H	 1.175099269	 1.753009916	 -2.086626735
H	 2.277480269	 1.172422916	 -1.212360735
