11
1  1  1  1  0  1   8   3 -17.44683 -16.79635 -17.06502 -17.71550 -17.10295 -17.47268 -14.32636 -14.34045 -14.37743 -16.34900 -27.10244 30.88172 -14.97121 -5.15707
N	 -0.473162906	 -0.196832402	 0.246750404
H	 -0.539659906	 -1.144393402	 0.614824404
H	 -1.009337906	 -0.173328402	 -0.619122596
H	 0.527371094	 -0.005184402	 0.016734404
C	 -0.990818906	 0.802971598	 1.230590404
H	 -0.898720906	 1.789492598	 0.792583404
H	 -2.028195906	 0.581083598	 1.450828404
H	 -0.389843906	 0.737374598	 2.129524404
O	 1.989162000	 0.398945000	 -0.221685000
H	 2.334509000	 0.946046000	 -0.933424000
H	 2.770717000	 0.044319000	 0.212559000
