11
1  1  1  1  0  1   8   3 -15.43082 -15.08392 -15.17167 -15.51857 -15.19377 -15.39696 -13.62233 -13.61863 -13.65518 -14.62637 -15.10204  9.75599 -6.57785 -2.70246
N	 -0.808963886	 0.677320670	 -0.849619819
H	 -1.302872886	 -0.190424330	 -0.647517819
H	 -0.929351886	 0.866246670	 -1.843393819
H	 0.207902114	 0.524590670	 -0.666963819
C	 -1.332636886	 1.803922670	 -0.017723819
H	 -0.777221886	 2.699118670	 -0.270099819
H	 -2.386996886	 1.940177670	 -0.226652819
H	 -1.181923886	 1.554251670	 1.025591181
O	 1.989162000	 0.398945000	 -0.221685000
H	 2.334509000	 0.946046000	 -0.933424000
H	 2.770717000	 0.044319000	 0.212559000
