11
1  1  1  1  0  1   8   3 -16.47754 -16.09225 -16.13094 -16.51623 -16.14778 -16.37446 -14.59248 -14.58937 -14.62177 -15.71099 -18.56963 11.99878 -6.30066 -2.83948
N	 -0.635097000	 -0.241601000	 0.273162000
H	 -0.701594000	 -1.189162000	 0.641236000
H	 -1.171272000	 -0.218097000	 -0.592711000
H	 0.365437000	 -0.049953000	 0.043146000
C	 -1.152753000	 0.758203000	 1.257002000
H	 -1.060655000	 1.744724000	 0.818995000
H	 -2.190130000	 0.536315000	 1.477240000
H	 -0.551778000	 0.692606000	 2.155936000
O	 1.734178036	 -0.746736610	 -1.026147538
H	 1.999159037	 -0.444523610	 -1.899994538
H	 2.435379037	 -1.346251610	 -0.754016538
