11
1  1  1  1  0  1   8   3 -15.15011 -14.67517 -14.75078 -15.22572 -14.78508 -15.05239 -12.60990 -12.60824 -12.63803 -14.29086 -20.12131 16.60883 -7.10269 -3.67569
N	 -0.635097000	 -0.241601000	 0.273162000
H	 -0.701594000	 -1.189162000	 0.641236000
H	 -1.171272000	 -0.218097000	 -0.592711000
H	 0.365437000	 -0.049953000	 0.043146000
C	 -1.152753000	 0.758203000	 1.257002000
H	 -1.060655000	 1.744724000	 0.818995000
H	 -2.190130000	 0.536315000	 1.477240000
H	 -0.551778000	 0.692606000	 2.155936000
O	 1.190566642	 1.041852564	 -1.119670180
H	 1.044815642	 1.580619564	 -1.903024180
H	 2.147196642	 1.000032564	 -1.028758180
