11
1  1  1  1  0  1   8   3 -15.45004 -15.02088 -15.03027 -15.45943 -15.07728 -15.31000 -12.80794 -12.80713 -12.83508 -14.77642 -18.37985 12.44906 -5.17643 -3.66920
N	 -0.635097000	 -0.241601000	 0.273162000
H	 -0.701594000	 -1.189162000	 0.641236000
H	 -1.171272000	 -0.218097000	 -0.592711000
H	 0.365437000	 -0.049953000	 0.043146000
C	 -1.152753000	 0.758203000	 1.257002000
H	 -1.060655000	 1.744724000	 0.818995000
H	 -2.190130000	 0.536315000	 1.477240000
H	 -0.551778000	 0.692606000	 2.155936000
O	 1.556981180	 1.388791522	 0.721719064
H	 1.831717180	 2.154996522	 0.209267064
H	 2.267913180	 1.253264522	 1.355251064
