11
1  1  1  1  0  1   8   3 -17.47569 -17.12675 -17.20875 -17.55768 -17.23062 -17.43807 -15.61971 -15.62186 -15.66540 -16.71943 -17.60004 10.43916 -6.90228 -2.65626
N	 -0.312285754	 -1.311853734	 -0.691947189
H	 -0.090744754	 -2.275288734	 -0.446010189
H	 -0.560435754	 -1.304211734	 -1.679943189
H	 0.550198246	 -0.736279734	 -0.567285189
C	 -1.428408754	 -0.781846734	 0.150001811
H	 -1.624353754	 0.240416266	 -0.150232189
H	 -2.308519754	 -1.396076734	 0.001623811
H	 -1.115462754	 -0.811715734	 1.186692811
O	 1.989162000	 0.398945000	 -0.221685000
H	 2.334509000	 0.946046000	 -0.933424000
H	 2.770717000	 0.044319000	 0.212559000
