11
1  1  1  1  0  1   8   3 -18.62432 -18.15681 -18.31339 -18.78091 -18.33784 -18.61092 -16.38221 -16.38546 -16.42559 -17.63720 -21.36985 16.97425 -9.64673 -3.59487
N	 -0.634609883	 -0.241466331	 0.273082551
H	 -0.701106883	 -1.189027331	 0.641156551
H	 -1.170784883	 -0.217962331	 -0.592790449
H	 0.365924117	 -0.049818331	 0.043066551
C	 -1.152265883	 0.758337669	 1.256922551
H	 -1.060167883	 1.744858669	 0.818915551
H	 -2.189642883	 0.536449669	 1.477160551
H	 -0.551290883	 0.692740669	 2.155856551
O	 1.989162000	 0.398945000	 -0.221685000
H	 2.334509000	 0.946046000	 -0.933424000
H	 2.770717000	 0.044319000	 0.212559000
