11
1  1  1  1  0  1   8   3 -15.16657 -14.65766 -14.69154 -15.20046 -14.74502 -15.02211 -12.03892 -12.04214 -12.07482 -14.35789 -20.52725 16.71916 -6.23881 -4.31099
N	 -0.635097000	 -0.241601000	 0.273162000
H	 -0.701594000	 -1.189162000	 0.641236000
H	 -1.171272000	 -0.218097000	 -0.592711000
H	 0.365437000	 -0.049953000	 0.043146000
C	 -1.152753000	 0.758203000	 1.257002000
H	 -1.060655000	 1.744724000	 0.818995000
H	 -2.190130000	 0.536315000	 1.477240000
H	 -0.551778000	 0.692606000	 2.155936000
O	 1.500240981	 1.320279878	 0.689406061
H	 1.774976981	 2.086484878	 0.176954061
H	 2.211172981	 1.184752878	 1.322938061
