11
1  1  1  1  0  1   8   3 -14.36281 -13.75926 -13.83142 -14.43497 -13.89203 -14.22106 -10.67572 -10.68368 -10.71957 -13.42076 -23.18687 22.46158 -7.61990 -5.07558
N	 -0.635097000	 -0.241601000	 0.273162000
H	 -0.701594000	 -1.189162000	 0.641236000
H	 -1.171272000	 -0.218097000	 -0.592711000
H	 0.365437000	 -0.049953000	 0.043146000
C	 -1.152753000	 0.758203000	 1.257002000
H	 -1.060655000	 1.744724000	 0.818995000
H	 -2.190130000	 0.536315000	 1.477240000
H	 -0.551778000	 0.692606000	 2.155936000
O	 1.443500782	 1.251768234	 0.657093058
H	 1.718236782	 2.017973234	 0.144641058
H	 2.154432782	 1.116241234	 1.290625058
