11
1  1  1  1  0  1   8   3 -16.79691 -16.13141 -16.39083 -17.05633 -16.43866 -16.80990 -13.48157 -13.50208 -13.53561 -15.76798 -27.50546 32.57278 -15.50979 -5.32550
N	 -0.222309757	 0.875910983	 0.995448436
H	 -0.496096757	 0.068027983	 1.552348436
H	 -0.965772757	 1.039076983	 0.318387436
H	 0.648184243	 0.632276983	 0.472391436
C	 -0.002792757	 2.077614983	 1.857559436
H	 0.284489243	 2.905008983	 1.220029436
H	 -0.919473757	 2.307527983	 2.387395436
H	 0.793364243	 1.852909983	 2.556986436
O	 1.989162000	 0.398945000	 -0.221685000
H	 2.334509000	 0.946046000	 -0.933424000
H	 2.770717000	 0.044319000	 0.212559000
