11
1  1  1  1  0  1   8   3 -8.43047 -7.59817 -7.87287 -8.70516 -7.92411 -8.39202 -3.95704 -3.96530 -4.00408 -7.40412 -30.84002 44.51783 -14.47465 -6.60728
N	 -0.635097000	 -0.241601000	 0.273162000
H	 -0.701594000	 -1.189162000	 0.641236000
H	 -1.171272000	 -0.218097000	 -0.592711000
H	 0.365437000	 -0.049953000	 0.043146000
C	 -1.152753000	 0.758203000	 1.257002000
H	 -1.060655000	 1.744724000	 0.818995000
H	 -2.190130000	 0.536315000	 1.477240000
H	 -0.551778000	 0.692606000	 2.155936000
O	 1.060283014	 0.869462211	 -0.936067625
H	 0.914532014	 1.408229211	 -1.719421625
H	 2.016913014	 0.827642211	 -0.845155625
