11
1  1  1  1  0  1   8   3 -6.11055 -5.08733 -5.39713 -6.42036 -5.48361 -6.04597 -0.20227 -0.22752 -0.27683 -5.06955 -36.02216 54.53497 -15.16495 -8.41741
N	 -0.635097000	 -0.241601000	 0.273162000
H	 -0.701594000	 -1.189162000	 0.641236000
H	 -1.171272000	 -0.218097000	 -0.592711000
H	 0.365437000	 -0.049953000	 0.043146000
C	 -1.152753000	 0.758203000	 1.257002000
H	 -1.060655000	 1.744724000	 0.818995000
H	 -2.190130000	 0.536315000	 1.477240000
H	 -0.551778000	 0.692606000	 2.155936000
O	 1.273280185	 1.046233302	 0.560154049
H	 1.548016185	 1.812438302	 0.047702049
H	 1.984212185	 0.910706302	 1.193686049
