11
1  1  1  1  0  1   8   3 -7.03298 -6.08556 -6.56048 -7.50790 -6.61215 -7.15000 -2.29032 -2.30984 -2.35723 -6.35334 -31.89988 58.46761 -24.96120 -7.95986
N	 0.358681981	 -0.765005233	 1.061218486
H	 0.751041981	 -1.636198233	 1.414556486
H	 -0.435985019	 -1.010933233	 0.473175486
H	 1.077848981	 -0.302247233	 0.461753486
C	 -0.055372019	 0.134979767	 2.181086486
H	 -0.464389019	 1.042573767	 1.753847486
H	 -0.800137019	 -0.368856233	 2.785541486
H	 0.821713981	 0.365116767	 2.773804486
O	 1.989162000	 0.398945000	 -0.221685000
H	 2.334509000	 0.946046000	 -0.933424000
H	 2.770717000	 0.044319000	 0.212559000
