11
1  1  1  1  0  1   8   3 -15.37811 -15.01661 -15.01183 -15.37332 -15.05292 -15.24749 -13.15665 -13.15252 -13.17466 -14.82932 -16.62580  9.27377 -4.34771 -3.12958
N	 -0.635097000	 -0.241601000	 0.273162000
H	 -0.701594000	 -1.189162000	 0.641236000
H	 -1.171272000	 -0.218097000	 -0.592711000
H	 0.365437000	 -0.049953000	 0.043146000
C	 -1.152753000	 0.758203000	 1.257002000
H	 -1.060655000	 1.744724000	 0.818995000
H	 -2.190130000	 0.536315000	 1.477240000
H	 -0.551778000	 0.692606000	 2.155936000
O	 1.613721379	 1.457303166	 0.754032067
H	 1.888457379	 2.223508166	 0.241580067
H	 2.324653379	 1.321776166	 1.387564067
