11
1  1  1  1  0  1   8   3 -18.00134 -17.52278 -17.67008 -18.14864 -17.70150 -17.97675 -15.43705 -15.44775 -15.48744 -17.04240 -21.86391 18.88886 -10.30002 -3.76733
N	 -0.181470867	 -1.208651486	 -0.660528990
H	 0.040070133	 -2.172086486	 -0.414591990
H	 -0.429620867	 -1.201009486	 -1.648524990
H	 0.681013133	 -0.633077486	 -0.535866990
C	 -1.297593867	 -0.678644486	 0.181420010
H	 -1.493538867	 0.343618514	 -0.118813990
H	 -2.177704867	 -1.292874486	 0.033042010
H	 -0.984647867	 -0.708513486	 1.218111010
O	 1.989162000	 0.398945000	 -0.221685000
H	 2.334509000	 0.946046000	 -0.933424000
H	 2.770717000	 0.044319000	 0.212559000
