11
1  1  1  1  0  1   8   3  2.84104  4.19660  3.57547  2.21992  3.51903  2.72419  8.48811  8.46198  8.35819  1.12153 -50.71023 106.12268 -42.72210 -11.56881
N	 0.210973793	 -0.899044740	 -0.566274393
H	 0.432514793	 -1.862479740	 -0.320337393
H	 -0.037176207	 -0.891402740	 -1.554270393
H	 1.073457793	 -0.323470740	 -0.441612393
C	 -0.905149207	 -0.369037740	 0.275674607
H	 -1.101094207	 0.653225260	 -0.024559393
H	 -1.785260207	 -0.983267740	 0.127296607
H	 -0.592203207	 -0.398906740	 1.312365607
O	 1.989162000	 0.398945000	 -0.221685000
H	 2.334509000	 0.946046000	 -0.933424000
H	 2.770717000	 0.044319000	 0.212559000
