11
1  1  1  1  0  1   8   3 -18.43425 -18.03666 -18.15544 -18.55304 -18.17444 -18.41109 -16.56505 -16.56400 -16.60612 -17.55782 -19.20303 12.47658 -7.82760 -3.00376
N	 -0.716794723	 -0.264187303	 0.286486972
H	 -0.783291723	 -1.211748303	 0.654560972
H	 -1.252969723	 -0.240683303	 -0.579386028
H	 0.283739277	 -0.072539303	 0.056470972
C	 -1.234450723	 0.735616697	 1.270326972
H	 -1.142352723	 1.722137697	 0.832319972
H	 -2.271827723	 0.513728697	 1.490564972
H	 -0.633475723	 0.670019697	 2.169260972
O	 1.989162000	 0.398945000	 -0.221685000
H	 2.334509000	 0.946046000	 -0.933424000
H	 2.770717000	 0.044319000	 0.212559000
