11
1  1  1  1  0  1   8   3 -15.15025 -14.67531 -14.75094 -15.22588 -14.78523 -15.05255 -12.60999 -12.60834 -12.63813 -14.29099 -20.12153 16.60929 -7.10297 -3.67577
N	 -0.635097000	 -0.241601000	 0.273162000
H	 -0.701594000	 -1.189162000	 0.641236000
H	 -1.171272000	 -0.218097000	 -0.592711000
H	 0.365437000	 -0.049953000	 0.043146000
C	 -1.152753000	 0.758203000	 1.257002000
H	 -1.060655000	 1.744724000	 0.818995000
H	 -2.190130000	 0.536315000	 1.477240000
H	 -0.551778000	 0.692606000	 2.155936000
O	 1.927575906	 -0.481767122	 0.816592111
H	 2.673627906	 -0.088289122	 0.354274111
H	 2.326779906	 -1.069535122	 1.464913111
