11
1  1  1  1  0  1   8   3 -13.47539 -12.81330 -13.09936 -13.76146 -13.13783 -13.51098 -9.93726 -9.94585 -9.97576 -12.32641 -23.99046 32.54996 -15.39410 -5.49180
N	 0.244767854	 -0.852654262	 1.146648296
H	 0.637127854	 -1.723847262	 1.499986296
H	 -0.549899146	 -1.098582262	 0.558605296
H	 0.963934854	 -0.389896262	 0.547183296
C	 -0.169286146	 0.047330738	 2.266516296
H	 -0.578303146	 0.954924738	 1.839277296
H	 -0.914051146	 -0.456505262	 2.870971296
H	 0.707799854	 0.277467738	 2.859234296
O	 1.989162000	 0.398945000	 -0.221685000
H	 2.334509000	 0.946046000	 -0.933424000
H	 2.770717000	 0.044319000	 0.212559000
