11
1  1  1  1  0  1   8   3 -14.02780 -13.45757 -13.57819 -14.14842 -13.61728 -13.93746 -10.94035 -10.94139 -10.97248 -13.04739 -22.86671 23.14146 -8.86747 -4.45468
N	 -0.635097000	 -0.241601000	 0.273162000
H	 -0.701594000	 -1.189162000	 0.641236000
H	 -1.171272000	 -0.218097000	 -0.592711000
H	 0.365437000	 -0.049953000	 0.043146000
C	 -1.152753000	 0.758203000	 1.257002000
H	 -1.060655000	 1.744724000	 0.818995000
H	 -2.190130000	 0.536315000	 1.477240000
H	 -0.551778000	 0.692606000	 2.155936000
O	 1.147138766	 0.984389113	 -1.058469328
H	 1.001387766	 1.523156113	 -1.841823328
H	 2.103768766	 0.942569113	 -0.967557328
