11
1  1  1  1  0  1   8   3  2.36641  3.73107  3.09790  1.73324  3.02739  2.23766  7.95688  7.92225  7.82377  0.78175 -49.23514 103.30869 -41.82712 -11.46468
N	 0.075685300	 0.824059431	 0.841209228
H	 -0.198101700	 0.016176431	 1.398109228
H	 -0.667777700	 0.987225431	 0.164148228
H	 0.946179300	 0.580425431	 0.318152228
C	 0.295202300	 2.025763431	 1.703320228
H	 0.582484300	 2.853157431	 1.065790228
H	 -0.621478700	 2.255676431	 2.233156228
H	 1.091359300	 1.801058431	 2.402747228
O	 1.989162000	 0.398945000	 -0.221685000
H	 2.334509000	 0.946046000	 -0.933424000
H	 2.770717000	 0.044319000	 0.212559000
