13
1  1  1  1  0  1  10   3 -14.28170 -13.88325 -14.19779 -14.59620 -14.21054 -14.44321 -11.96507 -11.96195 -11.98497 -13.47323 -16.43494 14.22313 -7.79600 -3.46542
C	 -0.540600000	 -2.253990253	 -4.333193153
C	 -0.986310000	 -1.459730253	 -3.311253153
N	 0.024760000	 -1.390880253	 -2.389463153
C	 1.064490000	 -2.109610253	 -2.809053153
N	 0.730130000	 -2.638890253	 -3.991223153
H	 1.333590000	 -3.233090253	 -4.541413153
H	 -0.000000000	 -0.864650253	 -1.497623153
H	 -1.013750000	 -2.564140253	 -5.245983153
H	 -1.923550000	 -0.952880253	 -3.177303153
H	 1.998760000	 -2.240990253	 -2.295053153
O	 0.000000000	 0.000000000	 0.000000000
H	 0.233080000	 0.727480000	 0.583420000
H	 -0.329060000	 -0.689290000	 0.583540000
