13
1  1  1  1  0  1  10   3 -15.07720 -14.67569 -14.96913 -15.37070 -14.97781 -15.21656 -12.84812 -12.84422 -12.87178 -14.34491 -17.95253 13.72613 -6.76183 -3.35669
C	 -0.540600000	 0.261687168	 -3.231914960
C	 -0.986310000	 0.438567168	 -1.949764960
N	 0.024760000	 0.037287168	 -1.117044960
C	 1.064490000	 -0.375352832	 -1.839784960
N	 0.730130000	 -0.242642832	 -3.128214960
H	 1.333590000	 -0.482132832	 -3.901794960
H	 0.000000000	 0.047097168	 -0.081574960
H	 -1.013750000	 0.449477168	 -4.177494960
H	 -1.923550000	 0.810527168	 -1.580334960
H	 1.998760000	 -0.746132832	 -1.460334960
O	 0.000000000	 -0.850590000	 1.473270000
H	 0.233080000	 -0.512290000	 2.342260000
H	 -0.329060000	 -1.739310000	 1.633980000
