13
1  1  1  1  0  1  10   3 -14.72350 -14.11931 -14.67388 -15.27810 -14.69918 -15.04069 -11.39226 -11.40202 -11.41826 -13.84802 -24.72935 29.98373 -13.89206 -5.21033
C	 1.877116531	 0.214590000	 -4.332455399
C	 0.850046531	 0.391470000	 -3.444935399
N	 1.309296531	 -0.009810000	 -2.218255399
C	 2.571096531	 -0.422450000	 -2.324295399
N	 2.925756531	 -0.289740000	 -3.607285399
H	 3.835156531	 -0.529230000	 -3.975505399
H	 0.770116531	 -0.000000000	 -1.333885399
H	 1.940146531	 0.402380000	 -5.387935399
H	 -0.146343469	 0.763430000	 -3.593625399
H	 3.190476531	 -0.793230000	 -1.528545399
O	 0.000000000	 0.000000000	 0.000000000
H	 0.233080000	 0.727480000	 0.583420000
H	 -0.329060000	 -0.689290000	 0.583540000
