13
1  1  1  1  0  1  10   3 -9.24934 -8.41791 -9.19907 -10.03050 -9.22017 -9.70140 -4.82416 -4.83085 -4.86109 -8.51665 -31.41185 48.57541 -18.59333 -7.08688
C	 -0.540600000	 0.349935881	 -2.915913278
C	 -0.986310000	 0.526815881	 -1.633763278
N	 0.024760000	 0.125535881	 -0.801043278
C	 1.064490000	 -0.287104119	 -1.523783278
N	 0.730130000	 -0.154394119	 -2.812213278
H	 1.333590000	 -0.393884119	 -3.585793278
H	 0.000000000	 0.135345881	 0.234426722
H	 -1.013750000	 0.537725881	 -3.861493278
H	 -1.923550000	 0.898775881	 -1.264333278
H	 1.998760000	 -0.657884119	 -1.144333278
O	 0.000000000	 0.850590000	 1.473270000
H	 0.233080000	 1.772320000	 1.614790000
H	 -0.329060000	 0.545420000	 2.323280000
