13
1  1  1  1  0  1  10   3 -14.50270 -14.21708 -14.41946 -14.70510 -14.42362 -14.59773 -12.98394 -12.97713 -13.00413 -14.01395 -14.47551  7.30598 -4.48108 -2.36334
C	 -0.540600000	 0.081719336	 -3.380479507
C	 -0.986310000	 0.258599336	 -2.098329507
N	 0.024760000	 -0.142680664	 -1.265609507
C	 1.064490000	 -0.555320664	 -1.988349507
N	 0.730130000	 -0.422610664	 -3.276779507
H	 1.333590000	 -0.662100664	 -4.050359507
H	 0.000000000	 -0.132870664	 -0.230139507
H	 -1.013750000	 0.269509336	 -4.326059507
H	 -1.923550000	 0.630559336	 -1.728899507
H	 1.998760000	 -0.926100664	 -1.608899507
O	 0.000000000	 0.850590000	 1.473270000
H	 0.233080000	 1.772320000	 1.614790000
H	 -0.329060000	 0.545420000	 2.323280000
