13
1  1  1  1  0  1  10   3 -9.60575 -8.76824 -9.51784 -10.35530 -9.54721 -10.02605 -5.21153 -5.22376 -5.25135 -8.97671 -31.60467 48.52464 -18.72588 -7.17081
C	 -0.677613037	 0.214590000	 -2.913025668
C	 -1.123323037	 0.391470000	 -1.630875668
N	 -0.112253037	 -0.009810000	 -0.798155668
C	 0.927476963	 -0.422450000	 -1.520895668
N	 0.593116963	 -0.289740000	 -2.809325668
H	 1.196576963	 -0.529230000	 -3.582905668
H	 -0.137013037	 0.000000000	 0.237314332
H	 -1.150763037	 0.402380000	 -3.858605668
H	 -2.060563037	 0.763430000	 -1.261445668
H	 1.861746963	 -0.793230000	 -1.141445668
O	 -0.850590000	 0.000000000	 1.473270000
H	 -0.940450000	 0.727480000	 2.095070000
H	 -1.427340000	 -0.689290000	 1.814100000
