13
1  1  1  1  0  1  10   3 -15.06060 -14.65679 -14.96522 -15.36900 -14.97398 -15.21449 -12.82765 -12.82403 -12.85275 -14.34636 -17.95529 13.87075 -6.89322 -3.36860
C	 -0.540600000	 0.171124851	 -3.225624097
C	 -0.986310000	 0.348004851	 -1.943474097
N	 0.024760000	 -0.053275149	 -1.110754097
C	 1.064490000	 -0.465915149	 -1.833494097
N	 0.730130000	 -0.333205149	 -3.121924097
H	 1.333590000	 -0.572695149	 -3.895504097
H	 0.000000000	 -0.043465149	 -0.075284097
H	 -1.013750000	 0.358914851	 -4.171204097
H	 -1.923550000	 0.719964851	 -1.574044097
H	 1.998760000	 -0.836695149	 -1.454044097
O	 0.000000000	 0.850590000	 1.473270000
H	 0.233080000	 1.772320000	 1.614790000
H	 -0.329060000	 0.545420000	 2.323280000
