13
1  1  1  1  0  1  10   3 -14.83830 -14.55142 -14.75016 -15.03710 -14.76036 -14.93005 -13.30099 -13.29824 -13.32129 -14.38474 -14.68912  7.27345 -4.56059 -2.40848
C	 -0.410021676	 0.214590000	 -3.376509044
C	 -0.855731676	 0.391470000	 -2.094359044
N	 0.155338324	 -0.009810000	 -1.261639044
C	 1.195068324	 -0.422450000	 -1.984379044
N	 0.860708324	 -0.289740000	 -3.272809044
H	 1.464168324	 -0.529230000	 -4.046389044
H	 0.130578324	 0.000000000	 -0.226169044
H	 -0.883171676	 0.402380000	 -4.322089044
H	 -1.792971676	 0.763430000	 -1.724929044
H	 2.129338324	 -0.793230000	 -1.604929044
O	 -0.850590000	 0.000000000	 1.473270000
H	 -0.940450000	 0.727480000	 2.095070000
H	 -1.427340000	 -0.689290000	 1.814100000
