13
1  1  1  1  0  1  10   3  2.68602  3.91960  2.76906  1.53548  2.72990  2.01291  8.56942  8.55055  8.48781  1.87139 -44.01731 89.14562 -32.60037 -10.65654
C	 -0.766810158	 0.214590000	 -2.758531210
C	 -1.212520158	 0.391470000	 -1.476381210
N	 -0.201450158	 -0.009810000	 -0.643661210
C	 0.838279842	 -0.422450000	 -1.366401210
N	 0.503919842	 -0.289740000	 -2.654831210
H	 1.107379842	 -0.529230000	 -3.428411210
H	 -0.226210158	 0.000000000	 0.391808790
H	 -1.239960158	 0.402380000	 -3.704111210
H	 -2.149760158	 0.763430000	 -1.106951210
H	 1.772549842	 -0.793230000	 -0.986951210
O	 -0.850590000	 0.000000000	 1.473270000
H	 -0.940450000	 0.727480000	 2.095070000
H	 -1.427340000	 -0.689290000	 1.814100000
