13
1  1  1  1  0  1  10   3 -14.69030 -14.08259 -14.58911 -15.19680 -14.61643 -14.95901 -11.33009 -11.34312 -11.35983 -13.79130 -25.06367 30.62797 -14.10037 -5.25524
C	 -2.814053645	 0.214590000	 -3.792889634
C	 -2.558973645	 0.391470000	 -2.459659634
N	 -1.267013645	 -0.009810000	 -2.244039634
C	 -0.727943645	 -0.422450000	 -3.389819634
N	 -1.661723645	 -0.289740000	 -4.338449634
H	 -1.525903645	 -0.529230000	 -5.310119634
H	 -0.770713645	 -0.000000000	 -1.334919634
H	 -3.696613645	 0.402380000	 -4.375219634
H	 -3.185943645	 0.763430000	 -1.671109634
H	 0.270876355	 -0.793230000	 -3.528339634
O	 0.000000000	 0.000000000	 0.000000000
H	 0.233080000	 0.727480000	 0.583420000
H	 -0.329060000	 -0.689290000	 0.583540000
