13
1  1  1  1  0  1  10   3 -16.01780 -15.69731 -15.92931 -16.24980 -15.93636 -16.13120 -14.40954 -14.40817 -14.44052 -15.40962 -16.00929  8.97974 -5.77580 -2.60428
C	 -0.581630000	 0.000350000	 -3.320945540
C	 -1.061150000	 0.000600000	 -2.038795540
N	 0.026630000	 0.000000000	 -1.206075540
C	 1.145250000	 -0.000600000	 -1.928815540
N	 0.785520000	 -0.000400000	 -3.217245540
H	 1.434760000	 -0.000750000	 -3.990825540
H	 0.000000000	 0.000000000	 -0.170605540
H	 -1.090690000	 0.000640000	 -4.266525540
H	 -2.069510000	 0.001150000	 -1.669365540
H	 2.150410000	 -0.001150000	 -1.549365540
O	 -0.000000000	 -0.000000000	 1.701190000
H	 -0.051300000	 0.762180000	 2.284610000
H	 -0.052000000	 -0.762040000	 2.284730000
