13
1  1  1  1  0  1  10   3 -14.15130 -13.81328 -14.06345 -14.40150 -14.07394 -14.27453 -12.21278 -12.20877 -12.23541 -13.46125 -14.69255 10.39136 -6.25565 -2.90440
C	 -0.540600000	 -2.297222765	 -4.408074311
C	 -0.986310000	 -1.502962765	 -3.386134311
N	 0.024760000	 -1.434112765	 -2.464344311
C	 1.064490000	 -2.152842765	 -2.883934311
N	 0.730130000	 -2.682122765	 -4.066104311
H	 1.333590000	 -3.276322765	 -4.616294311
H	 -0.000000000	 -0.907882765	 -1.572504311
H	 -1.013750000	 -2.607372765	 -5.320864311
H	 -1.923550000	 -0.996112765	 -3.252184311
H	 1.998760000	 -2.284222765	 -2.369934311
O	 0.000000000	 0.000000000	 0.000000000
H	 0.233080000	 0.727480000	 0.583420000
H	 -0.329060000	 -0.689290000	 0.583540000
