13
1  1  1  1  0  1  10   3 -16.32770 -15.80770 -16.25156 -16.77160 -16.27013 -16.56887 -13.60300 -13.60886 -13.62979 -15.43115 -22.31816 22.41024 -11.13681 -4.38642
C	 -0.581630000	 0.000350000	 -3.065700694
C	 -1.061150000	 0.000600000	 -1.783550694
N	 0.026630000	 0.000000000	 -0.950830694
C	 1.145250000	 -0.000600000	 -1.673570694
N	 0.785520000	 -0.000400000	 -2.962000694
H	 1.434760000	 -0.000750000	 -3.735580694
H	 0.000000000	 0.000000000	 0.084639306
H	 -1.090690000	 0.000640000	 -4.011280694
H	 -2.069510000	 0.001150000	 -1.414120694
H	 2.150410000	 -0.001150000	 -1.294120694
O	 -0.000000000	 -0.000000000	 1.701190000
H	 -0.051300000	 0.762180000	 2.284610000
H	 -0.052000000	 -0.762040000	 2.284730000
