13
1  1  1  1  0  1  10   3 -13.76370 -13.47735 -13.67882 -13.96510 -13.68707 -13.85930 -12.15461 -12.14978 -12.17696 -13.19301 -13.25714  7.57567 -5.07071 -2.44084
C	 -0.540600000	 -2.340455278	 -4.482955468
C	 -0.986310000	 -1.546195278	 -3.461015468
N	 0.024760000	 -1.477345278	 -2.539225468
C	 1.064490000	 -2.196075278	 -2.958815468
N	 0.730130000	 -2.725355278	 -4.140985468
H	 1.333590000	 -3.319555278	 -4.691175468
H	 -0.000000000	 -0.951115278	 -1.647385468
H	 -1.013750000	 -2.650605278	 -5.395745468
H	 -1.923550000	 -1.039345278	 -3.327065468
H	 1.998760000	 -2.327455278	 -2.444815468
O	 0.000000000	 0.000000000	 0.000000000
H	 0.233080000	 0.727480000	 0.583420000
H	 -0.329060000	 -0.689290000	 0.583540000
