13
1  1  1  1  0  1  10   3 -9.76222 -8.93293 -9.65380 -10.48310 -9.68501 -10.15692 -5.28066 -5.29400 -5.31894 -8.99381 -31.65071 47.65805 -17.87488 -7.12627
C	 -0.410670676	 0.214590000	 -2.925295061
C	 -0.856380676	 0.391470000	 -1.643145061
N	 0.154689324	 -0.009810000	 -0.810425061
C	 1.194419324	 -0.422450000	 -1.533165061
N	 0.860059324	 -0.289740000	 -2.821595061
H	 1.463519324	 -0.529230000	 -3.595175061
H	 0.129929324	 0.000000000	 0.225044939
H	 -0.883820676	 0.402380000	 -3.870875061
H	 -1.793620676	 0.763430000	 -1.273715061
H	 2.128689324	 -0.793230000	 -1.153715061
O	 0.850590000	 0.000000000	 1.473270000
H	 1.344150000	 0.727480000	 1.861990000
H	 0.857390000	 -0.689290000	 2.143160000
