13
1  1  1  1  0  1  10   3  3.10895  4.37886  3.13616  1.86625  3.10212  2.35882  8.85503  8.83814  8.76982  1.64930 -44.90410 96.84358 -39.12346 -11.16672
C	 1.705979524	 0.214590000	 -4.036036421
C	 0.678909524	 0.391470000	 -3.148516421
N	 1.138159524	 -0.009810000	 -1.921836421
C	 2.399959524	 -0.422450000	 -2.027876421
N	 2.754619524	 -0.289740000	 -3.310866421
H	 3.664019524	 -0.529230000	 -3.679086421
H	 0.598979524	 -0.000000000	 -1.037466421
H	 1.769009524	 0.402380000	 -5.091516421
H	 -0.317480476	 0.763430000	 -3.297206421
H	 3.019339524	 -0.793230000	 -1.232126421
O	 0.000000000	 0.000000000	 0.000000000
H	 0.233080000	 0.727480000	 0.583420000
H	 -0.329060000	 -0.689290000	 0.583540000
