13
1  1  1  1  0  1  10   3 -15.43020 -15.02478 -15.32316 -15.72860 -15.33874 -15.57433 -13.18772 -13.18850 -13.21263 -14.76615 -18.17889 13.82645 -6.98837 -3.42534
C	 -0.499218796	 0.214590000	 -3.222014586
C	 -0.944928796	 0.391470000	 -1.939864586
N	 0.066141204	 -0.009810000	 -1.107144585
C	 1.105871204	 -0.422450000	 -1.829884586
N	 0.771511204	 -0.289740000	 -3.118314586
H	 1.374971204	 -0.529230000	 -3.891894586
H	 0.041381204	 0.000000000	 -0.071674586
H	 -0.972368796	 0.402380000	 -4.167594585
H	 -1.882168797	 0.763430000	 -1.570434586
H	 2.040141204	 -0.793230000	 -1.450434586
O	 -0.850590000	 0.000000000	 1.473270000
H	 -0.940450000	 0.727480000	 2.095070000
H	 -1.427340000	 -0.689290000	 1.814100000
