13
1  1  1  1  0  1  10   3 -15.26690 -14.95144 -15.14743 -15.46290 -15.15946 -15.34860 -13.50291 -13.50599 -13.53848 -14.66438 -15.45103  9.18115 -5.78655 -2.60796
C	 -2.985323344	 0.214590000	 -4.089538442
C	 -2.730243344	 0.391470000	 -2.756308442
N	 -1.438283344	 -0.009810000	 -2.540688442
C	 -0.899213344	 -0.422450000	 -3.686468442
N	 -1.832993344	 -0.289740000	 -4.635098442
H	 -1.697173344	 -0.529230000	 -5.606768442
H	 -0.941983344	 -0.000000000	 -1.631568442
H	 -3.867883344	 0.402380000	 -4.671868442
H	 -3.357213344	 0.763430000	 -1.967758442
H	 0.099606656	 -0.793230000	 -3.824988442
O	 0.000000000	 0.000000000	 0.000000000
H	 0.233080000	 0.727480000	 0.583420000
H	 -0.329060000	 -0.689290000	 0.583540000
