13
1  1  1  1  0  1  10   3 -13.96510 -13.39242 -13.88314 -14.45580 -13.89744 -14.22992 -10.78049 -10.78149 -10.80443 -13.07458 -23.23697 26.09184 -11.07852 -4.85093
C	 -0.540600000	 0.260530366	 -3.070768687
C	 -0.986310000	 0.437410366	 -1.788618687
N	 0.024760000	 0.036130366	 -0.955898687
C	 1.064490000	 -0.376509634	 -1.678638687
N	 0.730130000	 -0.243799634	 -2.967068687
H	 1.333590000	 -0.483289634	 -3.740648687
H	 0.000000000	 0.045940366	 0.079571313
H	 -1.013750000	 0.448320366	 -4.016348687
H	 -1.923550000	 0.809370366	 -1.419188687
H	 1.998760000	 -0.747289634	 -1.299188687
O	 0.000000000	 0.850590000	 1.473270000
H	 0.233080000	 1.772320000	 1.614790000
H	 -0.329060000	 0.545420000	 2.323280000
