13
1  1  1  1  0  1  10   3 -8.31979 -7.50578 -8.28332 -9.09733 -8.30712 -8.77201 -3.88234 -3.88833 -3.90743 -7.58514 -28.52681 49.04603 -20.87135 -7.23301
C	 -0.540600000	 2.453301799	 -3.820068560
C	 -0.986310000	 1.965411799	 -2.621248560
N	 0.024760000	 1.201541799	 -2.100738560
C	 1.064490000	 1.205551799	 -2.932968560
N	 0.730130000	 1.964691799	 -3.982428560
H	 1.333590000	 2.144081799	 -4.772108560
H	 -0.000000000	 0.692291799	 -1.199088560
H	 -1.013750000	 3.088721799	 -4.545068560
H	 -1.923550000	 2.102821799	 -2.115338560
H	 1.998760000	 0.694711799	 -2.789748560
O	 0.000000000	 0.000000000	 0.000000000
H	 0.233080000	 0.727480000	 0.583420000
H	 -0.329060000	 -0.689290000	 0.583540000
