13
1  1  1  1  0  1  10   3  4.11279  5.32154  4.10568  2.89693  4.07492  3.36995  9.99907  9.98697  9.93020  3.22456 -38.74418 88.50788 -35.83280 -10.70633
C	 -0.540600000	 -1.994595177	 -3.883906207
C	 -0.986310000	 -1.200335177	 -2.861966207
N	 0.024760000	 -1.131485177	 -1.940176207
C	 1.064490000	 -1.850215177	 -2.359766207
N	 0.730130000	 -2.379495177	 -3.541936207
H	 1.333590000	 -2.973695177	 -4.092126207
H	 -0.000000000	 -0.605255177	 -1.048336207
H	 -1.013750000	 -2.304745177	 -4.796696207
H	 -1.923550000	 -0.693485177	 -2.728016207
H	 1.998760000	 -1.981595177	 -1.845766207
O	 0.000000000	 0.000000000	 0.000000000
H	 0.233080000	 0.727480000	 0.583420000
H	 -0.329060000	 -0.689290000	 0.583540000
