13
1  1  1  1  0  1  10   3 -15.28630 -14.80927 -15.14212 -15.61920 -15.16175 -15.43435 -12.60882 -12.61223 -12.63156 -14.47788 -20.54990 18.54209 -8.39689 -4.07318
C	 -0.545794553	 0.214590000	 -3.159337260
C	 -0.991504553	 0.391470000	 -1.877187260
N	 0.019565447	 -0.009810000	 -1.044467260
C	 1.059295447	 -0.422450000	 -1.767207260
N	 0.724935447	 -0.289740000	 -3.055637260
H	 1.328395447	 -0.529230000	 -3.829217260
H	 -0.005194553	 0.000000000	 -0.008997260
H	 -1.018944553	 0.402380000	 -4.104917260
H	 -1.928744553	 0.763430000	 -1.507757260
H	 1.993565447	 -0.793230000	 -1.387757260
O	 0.850590000	 0.000000000	 1.473270000
H	 1.344150000	 0.727480000	 1.861990000
H	 0.857390000	 -0.689290000	 2.143160000
