13
1  1  1  1  0  1  10   3 -14.93030 -14.64745 -14.80365 -15.08650 -14.81365 -14.97984 -13.43725 -13.43367 -13.45376 -14.45321 -14.73755  7.05269 -4.37867 -2.38968
C	 -0.680918430	 0.214590000	 -3.393379459
C	 -1.126628430	 0.391470000	 -2.111229459
N	 -0.115558430	 -0.009810000	 -1.278509459
C	 0.924171570	 -0.422450000	 -2.001249459
N	 0.589811570	 -0.289740000	 -3.289679459
H	 1.193271570	 -0.529230000	 -4.063259459
H	 -0.140318430	 0.000000000	 -0.243039459
H	 -1.154068430	 0.402380000	 -4.338959459
H	 -2.063868430	 0.763430000	 -1.741799459
H	 1.858441570	 -0.793230000	 -1.621799459
O	 0.850590000	 0.000000000	 1.473270000
H	 1.344150000	 0.727480000	 1.861990000
H	 0.857390000	 -0.689290000	 2.143160000
