13
1  1  1  1  0  1  10   3 -13.13770 -12.57733 -13.08238 -13.64280 -13.10015 -13.41919 -9.89400 -9.89395 -9.90657 -12.16070 -21.18330 26.46919 -12.47989 -4.96669
C	 -0.540600000	 -2.167525227	 -4.183430838
C	 -0.986310000	 -1.373265227	 -3.161490838
N	 0.024760000	 -1.304415227	 -2.239700838
C	 1.064490000	 -2.023145227	 -2.659290838
N	 0.730130000	 -2.552425227	 -3.841460838
H	 1.333590000	 -3.146625227	 -4.391650838
H	 -0.000000000	 -0.778185227	 -1.347860838
H	 -1.013750000	 -2.477675227	 -5.096220838
H	 -1.923550000	 -0.866415227	 -3.027540838
H	 1.998760000	 -2.154525227	 -2.145290838
O	 0.000000000	 0.000000000	 0.000000000
H	 0.233080000	 0.727480000	 0.583420000
H	 -0.329060000	 -0.689290000	 0.583540000
