13
1  1  1  1  0  1  10   3 -9.71797 -8.84780 -9.64198 -10.51210 -9.67282 -10.17006 -5.25637 -5.27163 -5.30009 -9.23627 -33.58859 55.20967 -23.25135 -7.60599
C	 -2.728418795	 0.214590000	 -3.644565230
C	 -2.473338795	 0.391470000	 -2.311335230
N	 -1.181378795	 -0.009810000	 -2.095715230
C	 -0.642308795	 -0.422450000	 -3.241495230
N	 -1.576088795	 -0.289740000	 -4.190125230
H	 -1.440268795	 -0.529230000	 -5.161795230
H	 -0.685078795	 -0.000000000	 -1.186595230
H	 -3.610978795	 0.402380000	 -4.226895230
H	 -3.100308795	 0.763430000	 -1.522785230
H	 0.356511205	 -0.793230000	 -3.380015230
O	 0.000000000	 0.000000000	 0.000000000
H	 0.233080000	 0.727480000	 0.583420000
H	 -0.329060000	 -0.689290000	 0.583540000
