13
1  1  1  1  0  1  10   3 -15.58940 -15.07670 -15.47602 -15.98870 -15.50006 -15.79095 -12.70216 -12.71309 -12.73297 -14.70742 -21.91202 22.72497 -11.12965 -4.39072
C	 -2.856871070	 0.214590000	 -3.867051836
C	 -2.601791070	 0.391470000	 -2.533821836
N	 -1.309831070	 -0.009810000	 -2.318201836
C	 -0.770761070	 -0.422450000	 -3.463981836
N	 -1.704541070	 -0.289740000	 -4.412611836
H	 -1.568721070	 -0.529230000	 -5.384281836
H	 -0.813531070	 -0.000000000	 -1.409081836
H	 -3.739431070	 0.402380000	 -4.449381836
H	 -3.228761070	 0.763430000	 -1.745271836
H	 0.228058930	 -0.793230000	 -3.602501836
O	 0.000000000	 0.000000000	 0.000000000
H	 0.233080000	 0.727480000	 0.583420000
H	 -0.329060000	 -0.689290000	 0.583540000
