13
1  1  1  1  0  1  10   3  2.79540  4.01637  2.81818  1.59720  2.78734  2.07276  8.82747  8.81437  8.75149  2.24874 -43.98667 88.65980 -31.88736 -10.53703
C	 -0.540600000	 -0.007618982	 -2.765461472
C	 -0.986310000	 0.169261018	 -1.483311472
N	 0.024760000	 -0.232018982	 -0.650591472
C	 1.064490000	 -0.644658982	 -1.373331472
N	 0.730130000	 -0.511948982	 -2.661761472
H	 1.333590000	 -0.751438982	 -3.435341472
H	 0.000000000	 -0.222208982	 0.384878528
H	 -1.013750000	 0.180171018	 -3.711041472
H	 -1.923550000	 0.541221018	 -1.113881472
H	 1.998760000	 -1.015438982	 -0.993881472
O	 0.000000000	 -0.850590000	 1.473270000
H	 0.233080000	 -0.512290000	 2.342260000
H	 -0.329060000	 -1.739310000	 1.633980000
