13
1  1  1  1  0  1  10   3 -14.24210 -13.84209 -14.13888 -14.53890 -14.15233 -14.38573 -11.91267 -11.91102 -11.93456 -13.41910 -16.46318 14.35337 -7.83718 -3.47212
C	 -0.540600000	 2.626374748	 -4.119840700
C	 -0.986310000	 2.138484748	 -2.921020700
N	 0.024760000	 1.374614748	 -2.400510700
C	 1.064490000	 1.378624748	 -3.232740700
N	 0.730130000	 2.137764748	 -4.282200700
H	 1.333590000	 2.317154748	 -5.071880700
H	 -0.000000000	 0.865364748	 -1.498860700
H	 -1.013750000	 3.261794748	 -4.844840700
H	 -1.923550000	 2.275894748	 -2.415110700
H	 1.998760000	 0.867784748	 -3.089520700
O	 0.000000000	 0.000000000	 0.000000000
H	 0.233080000	 0.727480000	 0.583420000
H	 -0.329060000	 -0.689290000	 0.583540000
