13
1  1  1  1  0  1  10   3 -16.60650 -16.16522 -16.52041 -16.96170 -16.53467 -16.79258 -14.30221 -14.30527 -14.33146 -15.78723 -19.80031 16.55532 -8.86464 -3.67760
C	 -0.581630000	 0.000350000	 -3.150782309
C	 -1.061150000	 0.000600000	 -1.868632309
N	 0.026630000	 0.000000000	 -1.035912309
C	 1.145250000	 -0.000600000	 -1.758652309
N	 0.785520000	 -0.000400000	 -3.047082309
H	 1.434760000	 -0.000750000	 -3.820662309
H	 0.000000000	 0.000000000	 -0.000442309
H	 -1.090690000	 0.000640000	 -4.096362309
H	 -2.069510000	 0.001150000	 -1.499202309
H	 2.150410000	 -0.001150000	 -1.379202309
O	 -0.000000000	 -0.000000000	 1.701190000
H	 -0.051300000	 0.762180000	 2.284610000
H	 -0.052000000	 -0.762040000	 2.284730000
