13
1  1  1  1  0  1  10   3 -15.90040 -15.46834 -15.82560 -16.25770 -15.84329 -16.09349 -13.46884 -13.47368 -13.49887 -15.12243 -19.15529 16.40609 -8.72369 -3.64953
C	 1.962685034	 0.214590000	 -4.480664887
C	 0.935615034	 0.391470000	 -3.593144887
N	 1.394865034	 -0.009810000	 -2.366464887
C	 2.656665034	 -0.422450000	 -2.472504887
N	 3.011325034	 -0.289740000	 -3.755494887
H	 3.920725034	 -0.529230000	 -4.123714887
H	 0.855685034	 -0.000000000	 -1.482094887
H	 2.025715034	 0.402380000	 -5.536144887
H	 -0.060774966	 0.763430000	 -3.741834887
H	 3.276045034	 -0.793230000	 -1.676754887
O	 0.000000000	 0.000000000	 0.000000000
H	 0.233080000	 0.727480000	 0.583420000
H	 -0.329060000	 -0.689290000	 0.583540000
