13
1  1  1  1  0  1  10   3 -13.97600 -13.50378 -13.88321 -14.35540 -13.89915 -14.17050 -11.21488 -11.21453 -11.23248 -13.05002 -18.62120 19.58592 -9.86412 -4.15062
C	 -0.540600000	 2.583106511	 -4.044897665
C	 -0.986310000	 2.095216511	 -2.846077665
N	 0.024760000	 1.331346511	 -2.325567665
C	 1.064490000	 1.335356511	 -3.157797665
N	 0.730130000	 2.094496511	 -4.207257665
H	 1.333590000	 2.273886511	 -4.996937665
H	 -0.000000000	 0.822096511	 -1.423917665
H	 -1.013750000	 3.218526511	 -4.769897665
H	 -1.923550000	 2.232626511	 -2.340167665
H	 1.998760000	 0.824516511	 -3.014577665
O	 0.000000000	 0.000000000	 0.000000000
H	 0.233080000	 0.727480000	 0.583420000
H	 -0.329060000	 -0.689290000	 0.583540000
