13
1  1  1  1  0  1  10   3 -15.26370 -14.92225 -15.16351 -15.50490 -15.17628 -15.37681 -13.39919 -13.39802 -13.42300 -14.70541 -16.26169 10.03950 -5.61431 -2.86891
C	 -0.454620236	 0.214590000	 -3.299261815
C	 -0.900330236	 0.391470000	 -2.017111815
N	 0.110739764	 -0.009810000	 -1.184391815
C	 1.150469764	 -0.422450000	 -1.907131815
N	 0.816109764	 -0.289740000	 -3.195561815
H	 1.419569764	 -0.529230000	 -3.969141815
H	 0.085979764	 0.000000000	 -0.148921815
H	 -0.927770236	 0.402380000	 -4.244841815
H	 -1.837570236	 0.763430000	 -1.647681815
H	 2.084739764	 -0.793230000	 -1.527681815
O	 -0.850590000	 0.000000000	 1.473270000
H	 -0.940450000	 0.727480000	 2.095070000
H	 -1.427340000	 -0.689290000	 1.814100000
