13
1  1  1  1  0  1  10   3  2.39392  3.61598  2.47367  1.25161  2.43275  1.72466  8.45998  8.44033  8.38050  1.85860 -44.26046 87.92644 -31.22142 -10.58597
C	 -0.320588092	 0.214590000	 -2.769266928
C	 -0.766298092	 0.391470000	 -1.487116928
N	 0.244771908	 -0.009810000	 -0.654396928
C	 1.284501908	 -0.422450000	 -1.377136928
N	 0.950141908	 -0.289740000	 -2.665566928
H	 1.553601908	 -0.529230000	 -3.439146928
H	 0.220011908	 0.000000000	 0.381073072
H	 -0.793738092	 0.402380000	 -3.714846928
H	 -1.703538092	 0.763430000	 -1.117686928
H	 2.218771908	 -0.793230000	 -0.997686928
O	 0.850590000	 0.000000000	 1.473270000
H	 1.344150000	 0.727480000	 1.861990000
H	 0.857390000	 -0.689290000	 2.143160000
