13
1  1  1  1  0  1  10   3 -14.83070 -14.35328 -14.72703 -15.20450 -14.73858 -15.01837 -12.15137 -12.14989 -12.17467 -13.98652 -20.30600 18.86341 -8.52261 -4.02133
C	 -0.540600000	 0.216802810	 -3.154172712
C	 -0.986310000	 0.393682810	 -1.872022712
N	 0.024760000	 -0.007597190	 -1.039302712
C	 1.064490000	 -0.420237190	 -1.762042712
N	 0.730130000	 -0.287527190	 -3.050472712
H	 1.333590000	 -0.527017190	 -3.824052712
H	 0.000000000	 0.002212810	 -0.003832712
H	 -1.013750000	 0.404592810	 -4.099752712
H	 -1.923550000	 0.765642810	 -1.502592712
H	 1.998760000	 -0.791017190	 -1.382592712
O	 0.000000000	 -0.850590000	 1.473270000
H	 0.233080000	 -0.512290000	 2.342260000
H	 -0.329060000	 -1.739310000	 1.633980000
