13
1  1  1  1  0  1  10   3 -14.45460 -13.88442 -14.31743 -14.88760 -14.34078 -14.66396 -11.25352 -11.26009 -11.27681 -13.56671 -23.46648 25.46760 -10.67766 -4.89017
C	 -0.500753261	 0.214590000	 -3.081323194
C	 -0.946463261	 0.391470000	 -1.799173194
N	 0.064606739	 -0.009810000	 -0.966453194
C	 1.104336739	 -0.422450000	 -1.689193194
N	 0.769976739	 -0.289740000	 -2.977623194
H	 1.373436739	 -0.529230000	 -3.751203194
H	 0.039846739	 0.000000000	 0.069016806
H	 -0.973903261	 0.402380000	 -4.026903194
H	 -1.883703261	 0.763430000	 -1.429743194
H	 2.038606739	 -0.793230000	 -1.309743194
O	 0.850590000	 0.000000000	 1.473270000
H	 1.344150000	 0.727480000	 1.861990000
H	 0.857390000	 -0.689290000	 2.143160000
