13
1  1  1  1  0  1  10   3 -14.90990 -14.56977 -14.81764 -15.15780 -14.82400 -15.02931 -13.06020 -13.05484 -13.08412 -14.30969 -16.04201 10.07794 -5.52734 -2.81828
C	 -0.540600000	 0.126422094	 -3.303051802
C	 -0.986310000	 0.303302094	 -2.020901802
N	 0.024760000	 -0.097977906	 -1.188181802
C	 1.064490000	 -0.510617906	 -1.910921802
N	 0.730130000	 -0.377907906	 -3.199351802
H	 1.333590000	 -0.617397906	 -3.972931802
H	 0.000000000	 -0.088167906	 -0.152711802
H	 -1.013750000	 0.314212094	 -4.248631802
H	 -1.923550000	 0.675262094	 -1.651471802
H	 1.998760000	 -0.881397906	 -1.531471802
O	 0.000000000	 0.850590000	 1.473270000
H	 0.233080000	 1.772320000	 1.614790000
H	 -0.329060000	 0.545420000	 2.323280000
