13
1  1  1  1  0  1  10   3 -9.73544 -8.86825 -9.71749 -10.58470 -9.74775 -10.24301 -5.28708 -5.30091 -5.32795 -9.26420 -33.02232 54.26288 -22.95070 -7.55406
C	 1.791548027	 0.214590000	 -4.184245910
C	 0.764478027	 0.391470000	 -3.296725910
N	 1.223728027	 -0.009810000	 -2.070045910
C	 2.485528027	 -0.422450000	 -2.176085910
N	 2.840188027	 -0.289740000	 -3.459075910
H	 3.749588027	 -0.529230000	 -3.827295910
H	 0.684548027	 -0.000000000	 -1.185675910
H	 1.854578027	 0.402380000	 -5.239725910
H	 -0.231911973	 0.763430000	 -3.445415910
H	 3.104908027	 -0.793230000	 -1.380335910
O	 0.000000000	 0.000000000	 0.000000000
H	 0.233080000	 0.727480000	 0.583420000
H	 -0.329060000	 -0.689290000	 0.583540000
