13
1  1  1  1  0  1  10   3 -15.69910 -15.32819 -15.57524 -15.94610 -15.59118 -15.80928 -13.60562 -13.61133 -13.64190 -14.98932 -17.20655 12.44242 -7.12998 -3.09522
C	 -2.942505919	 0.214590000	 -4.015376240
C	 -2.687425919	 0.391470000	 -2.682146240
N	 -1.395465919	 -0.009810000	 -2.466526240
C	 -0.856395919	 -0.422450000	 -3.612306240
N	 -1.790175919	 -0.289740000	 -4.560936240
H	 -1.654355919	 -0.529230000	 -5.532606240
H	 -0.899165919	 -0.000000000	 -1.557406240
H	 -3.825065919	 0.402380000	 -4.597706240
H	 -3.314395919	 0.763430000	 -1.893596240
H	 0.142424081	 -0.793230000	 -3.750826240
O	 0.000000000	 0.000000000	 0.000000000
H	 0.233080000	 0.727480000	 0.583420000
H	 -0.329060000	 -0.689290000	 0.583540000
