13
1  1  1  1  0  1  10   3 -15.40450 -14.78715 -15.34193 -15.95930 -15.36474 -15.71613 -12.20503 -12.21396 -12.23214 -14.48810 -25.38620 30.26879 -14.12208 -5.24860
C	 -0.581630000	 0.000350000	 -2.980619078
C	 -1.061150000	 0.000600000	 -1.698469078
N	 0.026630000	 0.000000000	 -0.865749078
C	 1.145250000	 -0.000600000	 -1.588489078
N	 0.785520000	 -0.000400000	 -2.876919078
H	 1.434760000	 -0.000750000	 -3.650499078
H	 0.000000000	 0.000000000	 0.169720922
H	 -1.090690000	 0.000640000	 -3.926199078
H	 -2.069510000	 0.001150000	 -1.329039078
H	 2.150410000	 -0.001150000	 -1.209039078
O	 -0.000000000	 -0.000000000	 1.701190000
H	 -0.051300000	 0.762180000	 2.284610000
H	 -0.052000000	 -0.762040000	 2.284730000
