13
1  1  1  1  0  1  10   3 -6.12568 -5.00193 -5.40963 -6.53338 -5.51013 -6.12015  1.04833  1.01297  0.96921 -4.93102 -37.87623 57.83305 -15.17280 -9.71505
C	 -2.130476603	 1.933101211	 -0.000054921
N	 -3.117146603	 2.828301211	 -0.000064921
N	 -1.632256603	 1.481071211	 -1.144344921
N	 -1.632286603	 1.481041211	 1.144235079
H	 -0.883556603	 0.801711211	 1.119175079
H	 -1.984886603	 1.800711211	 2.027605079
H	 -3.501376603	 3.177091211	 0.859085079
H	 -3.501476603	 3.176981211	 -0.859204921
H	 -1.984616603	 1.801001211	 -2.027714921
H	 -0.883556603	 0.801711211	 -1.119294921
O	 0.000000000	 0.000000000	 0.000000000
H	 0.740240000	 0.615280000	 0.000000000
H	 0.419270000	 -0.866460000	 0.000010000
