13
1  1  1  1  0  1  10   3 -17.57490 -17.09346 -17.16291 -17.64430 -17.21318 -17.48257 -14.75511 -14.76468 -14.81242 -16.90854 -20.11762 13.09124 -5.96733 -3.91483
C	 -1.650637964	 0.357449705	 0.000239739
N	 -2.952717964	 0.639389705	 0.000229739
N	 -0.993147964	 0.215099705	 -1.144050261
N	 -0.993157964	 0.215059705	 1.144529739
H	 -0.005077964	 0.001099705	 1.119469739
H	 -1.458357964	 0.315599705	 2.027899739
H	 -3.459867964	 0.749329705	 0.859379739
H	 -3.459897964	 0.749189705	 -0.858910261
H	 -1.458267964	 0.315979705	 -2.027420261
H	 -0.005077964	 0.001099705	 -1.119000261
O	 1.654060000	 -0.358210000	 0.000320000
H	 2.394300000	 0.257070000	 0.000320000
H	 2.073330000	 -1.224670000	 0.000330000
