13
1  1  1  1  0  1  10   3 -6.91580 -5.81128 -6.17519 -7.27971 -6.27783 -6.87709 -0.04183 -0.08208 -0.12962 -5.87307 -38.49616 56.79864 -14.70884 -9.46670
C	 -2.452572009	 0.613295466	 -1.416060725
N	 -3.580202009	 0.895235466	 -2.067110725
N	 -1.311032009	 0.470945466	 -2.078300725
N	 -2.455332009	 0.470905466	 -0.096340725
H	 -1.587092009	 0.256945466	 0.375999275
H	 -3.299892009	 0.571445466	 0.436089275
H	 -4.448982009	 1.005175466	 -1.576640725
H	 -3.589862009	 1.005035466	 -3.064740725
H	 -1.272152009	 0.571825466	 -3.075880725
H	 -0.467862009	 0.256945466	 -1.562570725
O	 0.000000000	 0.000000000	 0.000000000
H	 0.740240000	 0.615280000	 0.000000000
H	 0.419270000	 -0.866460000	 0.000010000
