13
1  1  1  1  0  1  10   3 -12.43040 -11.59518 -11.81499 -12.65020 -11.89172 -12.35040 -7.04368 -7.06517 -7.11300 -11.28763 -28.45408 35.24051 -10.89447 -7.17960
C	 -2.901645876	 -0.930545212	 -0.000063481
N	 -4.170255876	 -1.337425212	 -0.000073481
N	 -2.261075876	 -0.725085212	 -1.144353481
N	 -2.261065876	 -0.725125212	 1.144226519
H	 -1.298375876	 -0.416375212	 1.119166519
H	 -2.714205876	 -0.870655212	 2.027596519
H	 -4.664425876	 -1.495785212	 0.859076519
H	 -4.664385876	 -1.495925212	 -0.859213481
H	 -2.714315876	 -0.870275212	 -2.027723481
H	 -1.298375876	 -0.416375212	 -1.119303481
O	 0.000000000	 0.000000000	 0.000000000
H	 0.740240000	 0.615280000	 0.000000000
H	 0.419270000	 -0.866460000	 0.000010000
