13
1  1  1  1  0  1  10   3 -1.54227 -0.35719 -0.94657 -2.13166 -1.02918 -1.69350  4.82087  4.78791  4.72402 -1.53907 -43.98734 77.92009 -25.22389 -10.24793
C	 -1.430117731	 0.302469126	 0.124646140
N	 -2.732197731	 0.584409126	 0.124636140
N	 -0.772627731	 0.160119126	 -1.019643860
N	 -0.772637731	 0.160079126	 1.268936140
H	 0.215442269	 -0.053880874	 1.243876140
H	 -1.237837731	 0.260619126	 2.152306140
H	 -3.239347731	 0.694349126	 0.983786140
H	 -3.239377731	 0.694209126	 -0.734503860
H	 -1.237747731	 0.260999126	 -1.903013860
H	 0.215442269	 -0.053880874	 -0.994593860
O	 1.432300000	 -0.358210000	 0.827310000
H	 2.073360000	 0.257070000	 1.197430000
H	 1.795390000	 -1.224670000	 1.036950000
