13
1  1  1  1  0  1  10   3 -15.47100 -14.93745 -15.01229 -15.54580 -15.06412 -15.36235 -12.04596 -12.05250 -12.09932 -14.65753 -19.59781 16.11289 -6.64852 -4.52409
C	 -2.446032532	 2.219426643	 -0.000076322
N	 -3.432702532	 3.114626643	 -0.000086322
N	 -1.947812532	 1.767396643	 -1.144366322
N	 -1.947842532	 1.767366643	 1.144213678
H	 -1.199112532	 1.088036643	 1.119153678
H	 -2.300442532	 2.087036643	 2.027583678
H	 -3.816932532	 3.463416644	 0.859063678
H	 -3.817032532	 3.463306643	 -0.859226322
H	 -2.300172532	 2.087326643	 -2.027736322
H	 -1.199112532	 1.088036643	 -1.119316322
O	 0.000000000	 0.000000000	 0.000000000
H	 0.740240000	 0.615280000	 0.000000000
H	 0.419270000	 -0.866460000	 0.000010000
