13
1  1  1  1  0  1  10   3 -6.91568 -5.81114 -6.17505 -7.27960 -6.27770 -6.87697 -0.04164 -0.08189 -0.12943 -5.87294 -38.49663 56.79936 -14.70895 -9.46673
C	 -2.452627980	 0.613295466	 1.415963129
N	 -3.580267980	 0.895235466	 2.066993129
N	 -2.455377980	 0.470945466	 0.096233129
N	 -1.311097980	 0.470905466	 2.078203129
H	 -0.467917980	 0.256945466	 1.562463129
H	 -1.272287980	 0.571445466	 3.075833129
H	 -3.589897980	 1.005175466	 3.064613129
H	 -4.449067980	 1.005035466	 1.576543129
H	 -3.299867980	 0.571825466	 -0.436226871
H	 -1.587157980	 0.256945466	 -0.376106871
O	 0.000000000	 0.000000000	 0.000000000
H	 0.740240000	 0.615280000	 0.000000000
H	 0.419270000	 -0.866460000	 0.000010000
