13
1  1  1  1  0  1  10   3 -15.99230 -15.55419 -15.59719 -16.03530 -15.64202 -15.88430 -13.30268 -13.30294 -13.33830 -15.42248 -18.36665 11.59784 -4.97467 -3.67900
C	 -1.730070206	 0.329248484	 0.000235543
N	 -3.032150206	 0.611188484	 0.000225543
N	 -1.072580206	 0.186898484	 -1.144054457
N	 -1.072590206	 0.186858484	 1.144525543
H	 -0.084510206	 -0.027101516	 1.119465543
H	 -1.537790206	 0.287398484	 2.027895543
H	 -3.539300206	 0.721128484	 0.859375543
H	 -3.539330206	 0.720988484	 -0.858914457
H	 -1.537700206	 0.287778484	 -2.027424457
H	 -0.084510206	 -0.027101516	 -1.119004457
O	 1.611560000	 0.516810000	 0.000320000
H	 1.944990000	 1.419780000	 0.000320000
H	 2.407890000	 -0.023930000	 0.000330000
