13
1  1  1  1  0  1  10   3 -14.88350 -14.55414 -14.58202 -14.91140 -14.61754 -14.79869 -12.79018 -12.78856 -12.81525 -14.40594 -14.46714  7.08005 -4.16902 -2.84982
C	 -2.635366090	 2.391221903	 -0.000089162
N	 -3.622036090	 3.286421903	 -0.000099162
N	 -2.137146090	 1.939191903	 -1.144379162
N	 -2.137176090	 1.939161903	 1.144200838
H	 -1.388446090	 1.259831903	 1.119140838
H	 -2.489776090	 2.258831903	 2.027570838
H	 -4.006266090	 3.635211903	 0.859050838
H	 -4.006366090	 3.635101903	 -0.859239162
H	 -2.489506090	 2.259121903	 -2.027749162
H	 -1.388446090	 1.259831903	 -1.119329162
O	 0.000000000	 0.000000000	 0.000000000
H	 0.740240000	 0.615280000	 0.000000000
H	 0.419270000	 -0.866460000	 0.000010000
