13
1  1  1  1  0  1  10   3 -14.87330 -14.57079 -14.63857 -14.94110 -14.66580 -14.83635 -13.28809 -13.29134 -13.31841 -14.40186 -14.97001  7.35390 -4.37707 -2.40868
C	 -2.125162495	 0.476269036	 0.277095597
N	 -3.427242495	 0.758209036	 0.277085597
N	 -1.467672495	 0.333919036	 -0.867194403
N	 -1.467682495	 0.333879036	 1.421385597
H	 -0.479602495	 0.119919036	 1.396325597
H	 -1.932882495	 0.434419036	 2.304755597
H	 -3.934392495	 0.868149036	 1.136235597
H	 -3.934422495	 0.868009036	 -0.582054403
H	 -1.932792495	 0.434799036	 -1.750564403
H	 -0.479602495	 0.119919036	 -0.842144403
O	 1.432620000	 -0.358210000	 -0.826760000
H	 2.073680000	 0.257070000	 -1.196880000
H	 1.795720000	 -1.224670000	 -1.036380000
