13
1  1  1  1  0  1  10   3 -15.57480 -15.14748 -15.26378 -15.69110 -15.30404 -15.54021 -13.22488 -13.23517 -13.26454 -14.89528 -18.70767 13.93911 -6.65684 -3.46988
C	 -1.951324087	 0.432802760	 0.176745543
N	 -3.253404087	 0.714742760	 0.176735543
N	 -1.293834087	 0.290452760	 -0.967544457
N	 -1.293844087	 0.290412760	 1.321035543
H	 -0.305764087	 0.076452760	 1.295975543
H	 -1.759044087	 0.390952760	 2.204405543
H	 -3.760554087	 0.824682760	 1.035885543
H	 -3.760584087	 0.824542760	 -0.682404457
H	 -1.758954087	 0.391332760	 -1.850914457
H	 -0.305764087	 0.076452760	 -0.942494457
O	 1.432620000	 -0.358210000	 -0.826760000
H	 2.073680000	 0.257070000	 -1.196880000
H	 1.795720000	 -1.224670000	 -1.036380000
