13
1  1  1  1  0  1  10   3 -15.34890 -14.98856 -15.07594 -15.43630 -15.10904 -15.31083 -13.40911 -13.41541 -13.44523 -14.77354 -16.66137 10.15797 -5.37983 -2.89030
C	 -2.038546596	 0.454633690	 -0.226688290
N	 -3.340626596	 0.736573690	 -0.226698290
N	 -1.381056596	 0.312283690	 -1.370978290
N	 -1.381066596	 0.312243690	 0.917601710
H	 -0.392986596	 0.098283690	 0.892541710
H	 -1.846266596	 0.412783690	 1.800971710
H	 -3.847776596	 0.846513690	 0.632451710
H	 -3.847806596	 0.846373690	 -1.085838290
H	 -1.846176596	 0.413163690	 -2.254348290
H	 -0.392986596	 0.098283690	 -1.345928290
O	 1.432300000	 -0.358210000	 0.827310000
H	 2.073360000	 0.257070000	 1.197430000
H	 1.795390000	 -1.224670000	 1.036950000
