13
1  1  1  1  0  1  10   3 -15.34960 -14.98917 -15.07653 -15.43690 -15.10966 -15.31145 -13.40956 -13.41586 -13.44568 -14.77416 -16.66214 10.15849 -5.38002 -2.89049
C	 -2.038243291	 0.454535898	 0.226920570
N	 -3.340323291	 0.736475898	 0.226910570
N	 -1.380753291	 0.312185898	 -0.917369430
N	 -1.380763291	 0.312145898	 1.371210570
H	 -0.392683291	 0.098185898	 1.346150570
H	 -1.845963291	 0.412685898	 2.254580570
H	 -3.847473291	 0.846415898	 1.086060570
H	 -3.847503291	 0.846275898	 -0.632229430
H	 -1.845873291	 0.413065898	 -1.800739430
H	 -0.392683291	 0.098185898	 -0.892319430
O	 1.432620000	 -0.358210000	 -0.826760000
H	 2.073680000	 0.257070000	 -1.196880000
H	 1.795720000	 -1.224670000	 -1.036380000
