13
1  1  1  1  0  1  10   3 -15.29700 -14.90851 -14.94507 -15.33360 -14.98556 -15.20120 -12.81753 -12.81819 -12.85242 -14.71720 -15.89307  9.34882 -4.85045 -3.32250
C	 -2.572254904	 2.333956816	 -0.000084882
N	 -3.558924904	 3.229156816	 -0.000094882
N	 -2.074034904	 1.881926817	 -1.144374882
N	 -2.074064904	 1.881896817	 1.144205118
H	 -1.325334904	 1.202566817	 1.119145118
H	 -2.426664904	 2.201566816	 2.027575118
H	 -3.943154904	 3.577946816	 0.859055118
H	 -3.943254904	 3.577836816	 -0.859234882
H	 -2.426394904	 2.201856817	 -2.027744882
H	 -1.325334904	 1.202566817	 -1.119324882
O	 0.000000000	 0.000000000	 0.000000000
H	 0.740240000	 0.615280000	 0.000000000
H	 0.419270000	 -0.866460000	 0.000010000
