13
1  1  1  1  0  1  10   3 -15.49260 -14.88568 -14.97938 -15.58630 -15.03944 -15.37621 -11.72910 -11.73932 -11.78821 -14.69470 -22.88603 20.16556 -6.91178 -5.06245
C	 -1.560463186	 0.383639635	 0.000244488
N	 -2.862543186	 0.665579635	 0.000234488
N	 -0.902973186	 0.241289635	 -1.144045512
N	 -0.902983186	 0.241249635	 1.144534488
H	 0.085096814	 0.027289635	 1.119474488
H	 -1.368183186	 0.341789635	 2.027904488
H	 -3.369693186	 0.775519635	 0.859384488
H	 -3.369723186	 0.775379635	 -0.858905512
H	 -1.368093186	 0.342169635	 -2.027415512
H	 0.085096814	 0.027289635	 -1.118995512
O	 1.611560000	 0.516810000	 0.000320000
H	 1.944990000	 1.419780000	 0.000320000
H	 2.407890000	 -0.023930000	 0.000330000
