13
1  1  1  1  0  1  10   3 -15.52030 -15.06401 -15.11554 -15.57180 -15.16138 -15.41609 -12.59901 -12.60233 -12.64361 -14.82670 -17.58157 12.29832 -5.66786 -3.87559
C	 -3.226239845	 -1.034639015	 -0.000080602
N	 -4.494849845	 -1.441519015	 -0.000090602
N	 -2.585669845	 -0.829179015	 -1.144370602
N	 -2.585659845	 -0.829219015	 1.144209398
H	 -1.622969845	 -0.520469015	 1.119149398
H	 -3.038799845	 -0.974749015	 2.027579398
H	 -4.989019845	 -1.599879015	 0.859059398
H	 -4.988979845	 -1.600019015	 -0.859230602
H	 -3.038909845	 -0.974369015	 -2.027740602
H	 -1.622969845	 -0.520469015	 -1.119320602
O	 0.000000000	 0.000000000	 0.000000000
H	 0.740240000	 0.615280000	 0.000000000
H	 0.419270000	 -0.866460000	 0.000010000
