13
1  1  1  1  0  1  10   3 -15.29630 -14.90782 -14.94437 -15.33290 -14.98484 -15.20049 -12.81678 -12.81743 -12.85166 -14.71649 -15.89228  9.34875 -4.85043 -3.32252
C	 -3.307388337	 -1.060662466	 -0.000084882
N	 -4.575998337	 -1.467542466	 -0.000094882
N	 -2.666818337	 -0.855202466	 -1.144374882
N	 -2.666808337	 -0.855242466	 1.144205118
H	 -1.704118337	 -0.546492466	 1.119145118
H	 -3.119948337	 -1.000772466	 2.027575118
H	 -5.070168337	 -1.625902466	 0.859055118
H	 -5.070128337	 -1.626042466	 -0.859234882
H	 -3.120058337	 -1.000392466	 -2.027744882
H	 -1.704118337	 -0.546492466	 -1.119324882
O	 0.000000000	 0.000000000	 0.000000000
H	 0.740240000	 0.615280000	 0.000000000
H	 0.419270000	 -0.866460000	 0.000010000
