13
1  1  1  1  0  1  10   3 -15.03710 -14.41597 -14.52481 -15.14600 -14.58360 -14.92977 -11.03905 -11.04958 -11.09948 -14.10205 -22.01556 21.01691 -7.82337 -5.28003
C	 -3.063942860	 -0.982592113	 -0.000072042
N	 -4.332552860	 -1.389472113	 -0.000082042
N	 -2.423372860	 -0.777132113	 -1.144362042
N	 -2.423362860	 -0.777172113	 1.144217958
H	 -1.460672860	 -0.468422113	 1.119157958
H	 -2.876502860	 -0.922702113	 2.027587958
H	 -4.826722860	 -1.547832113	 0.859067958
H	 -4.826682860	 -1.547972113	 -0.859222042
H	 -2.876612860	 -0.922322113	 -2.027732042
H	 -1.460672860	 -0.468422113	 -1.119312042
O	 0.000000000	 0.000000000	 0.000000000
H	 0.740240000	 0.615280000	 0.000000000
H	 0.419270000	 -0.866460000	 0.000010000
