13
1  1  1  1  0  1  10   3 -13.32450 -12.49777 -12.68813 -13.51490 -12.76894 -13.22243 -8.17583 -8.20404 -8.25675 -12.31595 -29.37911 34.64039 -10.61246 -6.96477
C	 -2.599354439	 0.650001961	 -1.500815828
N	 -3.726984439	 0.931941961	 -2.151865828
N	 -1.457814439	 0.507651961	 -2.163055828
N	 -2.602114439	 0.507611961	 -0.181095828
H	 -1.733874439	 0.293651961	 0.291244172
H	 -3.446674439	 0.608151961	 0.351334172
H	 -4.595764439	 1.041881961	 -1.661395828
H	 -3.736644439	 1.041741961	 -3.149495828
H	 -1.418934439	 0.608531961	 -3.160635828
H	 -0.614644439	 0.293651961	 -1.647325828
O	 0.000000000	 0.000000000	 0.000000000
H	 0.740240000	 0.615280000	 0.000000000
H	 0.419270000	 -0.866460000	 0.000010000
