13
1  1  1  1  0  1  10   3 -15.93950 -15.42295 -15.48606 -16.00260 -15.53803 -15.82467 -12.75020 -12.75500 -12.79783 -15.25830 -20.41756 15.32737 -5.85271 -4.31540
C	 -1.645266696	 0.356444059	 0.000240015
N	 -2.947346696	 0.638384059	 0.000230015
N	 -0.987776696	 0.214094059	 -1.144049985
N	 -0.987786696	 0.214054059	 1.144530015
H	 0.000293304	 0.000094059	 1.119470015
H	 -1.452986696	 0.314594059	 2.027900015
H	 -3.454496696	 0.748324059	 0.859380015
H	 -3.454526696	 0.748184059	 -0.858909985
H	 -1.452896696	 0.314974059	 -2.027419985
H	 0.000293304	 0.000094059	 -1.118999985
O	 1.611560000	 0.516810000	 0.000320000
H	 1.944990000	 1.419780000	 0.000320000
H	 2.407890000	 -0.023930000	 0.000330000
