13
1  1  1  1  0  1  10   3 -16.41460 -15.88568 -15.94641 -16.47540 -16.00223 -16.29677 -13.14595 -13.15846 -13.20826 -15.70929 -20.69831 15.89454 -6.53930 -4.36622
C	 -2.819528084	 0.705061704	 -1.627948484
N	 -3.947158084	 0.987001704	 -2.278998484
N	 -1.677988084	 0.562711704	 -2.290188484
N	 -2.822288084	 0.562671704	 -0.308228484
H	 -1.954048084	 0.348711704	 0.164111516
H	 -3.666848084	 0.663211704	 0.224201516
H	 -4.815938084	 1.096941704	 -1.788528484
H	 -3.956818084	 1.096801704	 -3.276628484
H	 -1.639108084	 0.663591704	 -3.287768484
H	 -0.834818084	 0.348711704	 -1.774458484
O	 0.000000000	 0.000000000	 0.000000000
H	 0.740240000	 0.615280000	 0.000000000
H	 0.419270000	 -0.866460000	 0.000010000
