13
1  1  1  1  0  1  10   3 -17.06670 -16.41658 -16.54595 -17.19600 -16.61148 -16.97366 -13.18817 -13.20826 -13.26570 -16.17504 -24.82111 22.15167 -8.18478 -5.32082
C	 -1.484724168	 0.321518734	 0.000248265
N	 -2.786804168	 0.603458734	 0.000238265
N	 -0.827234168	 0.179168734	 -1.144041735
N	 -0.827244168	 0.179128734	 1.144538265
H	 0.160835832	 -0.034831266	 1.119478265
H	 -1.292444168	 0.279668734	 2.027908265
H	 -3.293954168	 0.713398734	 0.859388265
H	 -3.293984168	 0.713258734	 -0.858901735
H	 -1.292354168	 0.280048734	 -2.027411735
H	 0.160835832	 -0.034831266	 -1.118991735
O	 1.654060000	 -0.358210000	 0.000320000
H	 2.394300000	 0.257070000	 0.000320000
H	 2.073330000	 -1.224670000	 0.000330000
