13
1  1  1  1  0  1  10   3 -15.47030 -14.93676 -15.01160 -15.54510 -15.06343 -15.36166 -12.04520 -12.05173 -12.09855 -14.65681 -19.59697 16.11278 -6.64851 -4.52411
C	 -3.145091353	 -1.008615564	 -0.000076322
N	 -4.413701353	 -1.415495564	 -0.000086322
N	 -2.504521353	 -0.803155564	 -1.144366322
N	 -2.504511353	 -0.803195564	 1.144213678
H	 -1.541821353	 -0.494445564	 1.119153678
H	 -2.957651353	 -0.948725564	 2.027583678
H	 -4.907871353	 -1.573855564	 0.859063678
H	 -4.907831353	 -1.573995564	 -0.859226322
H	 -2.957761353	 -0.948345564	 -2.027736322
H	 -1.541821353	 -0.494445564	 -1.119316322
O	 0.000000000	 0.000000000	 0.000000000
H	 0.740240000	 0.615280000	 0.000000000
H	 0.419270000	 -0.866460000	 0.000010000
