13
1  1  1  1  0  1  10   3 -15.52100 -15.06470 -15.11624 -15.57260 -15.16209 -15.41681 -12.59977 -12.60309 -12.64437 -14.82742 -17.58239 12.29841 -5.66788 -3.87557
C	 -2.509143718	 2.276691730	 -0.000080602
N	 -3.495813718	 3.171891730	 -0.000090602
N	 -2.010923718	 1.824661730	 -1.144370602
N	 -2.010953718	 1.824631730	 1.144209398
H	 -1.262223718	 1.145301730	 1.119149398
H	 -2.363553718	 2.144301730	 2.027579398
H	 -3.880043718	 3.520681730	 0.859059398
H	 -3.880143718	 3.520571730	 -0.859230602
H	 -2.363283718	 2.144591730	 -2.027740602
H	 -1.262223718	 1.145301730	 -1.119320602
O	 0.000000000	 0.000000000	 0.000000000
H	 0.740240000	 0.615280000	 0.000000000
H	 0.419270000	 -0.866460000	 0.000010000
