13
1  1  1  1  0  1  10   3 -15.76490 -15.39450 -15.42534 -15.79580 -15.46377 -15.66727 -13.50866 -13.50526 -13.53263 -15.29648 -16.65132  8.74017 -4.24700 -3.13833
C	 -1.814873717	 0.302052908	 0.000231070
N	 -3.116953717	 0.583992908	 0.000221070
N	 -1.157383717	 0.159702908	 -1.144058930
N	 -1.157393717	 0.159662908	 1.144521070
H	 -0.169313717	 -0.054297092	 1.119461070
H	 -1.622593717	 0.260202908	 2.027891070
H	 -3.624103717	 0.693932908	 0.859371070
H	 -3.624133717	 0.693792908	 -0.858918930
H	 -1.622503717	 0.260582908	 -2.027428930
H	 -0.169313717	 -0.054297092	 -1.119008930
O	 1.611560000	 0.516810000	 0.000320000
H	 1.944990000	 1.419780000	 0.000320000
H	 2.407890000	 -0.023930000	 0.000330000
