13
1  1  1  1  0  1  10   3 -6.24544 -5.11176 -5.49507 -6.62876 -5.59924 -6.21833  0.77340  0.73528  0.67863 -5.16596 -39.26858 57.31822 -13.69907 -9.51653
C	 -1.315562972	 0.056921173	 0.000262380
N	 -2.617642972	 0.338861173	 0.000252380
N	 -0.658072972	 -0.085428827	 -1.144027620
N	 -0.658082972	 -0.085468827	 1.144552380
H	 0.329997028	 -0.299428827	 1.119492380
H	 -1.123282972	 0.015071173	 2.027922380
H	 -3.124792972	 0.448801173	 0.859402380
H	 -3.124822972	 0.448661173	 -0.858887620
H	 -1.123192972	 0.015451173	 -2.027397620
H	 0.329997028	 -0.299428827	 -1.118977620
O	 1.253350000	 -1.137250000	 0.000320000
H	 2.202060000	 -0.974520000	 0.000320000
H	 1.183220000	 -2.097260000	 0.000330000
