13
1  1  1  1  0  1  10   3 -10.81450 -9.97206 -10.33803 -11.18050 -10.40850 -10.86781 -6.13130 -6.15940 -6.19021 -10.04732 -32.31239 45.67239 -16.22627 -7.18105
C	 -1.603954550	 0.345944716	 0.024264875
N	 -2.906034550	 0.627884716	 0.024254875
N	 -0.946464550	 0.203594716	 -1.120025125
N	 -0.946474550	 0.203554716	 1.168554875
H	 0.041605450	 -0.010405284	 1.143494875
H	 -1.411674550	 0.304094716	 2.051924875
H	 -3.413184550	 0.737824716	 0.883404875
H	 -3.413214550	 0.737684716	 -0.834885125
H	 -1.411584550	 0.304474716	 -2.003395125
H	 0.041605450	 -0.010405284	 -1.094975125
O	 1.432300000	 -0.358210000	 0.827310000
H	 2.073360000	 0.257070000	 1.197430000
H	 1.795390000	 -1.224670000	 1.036950000
