13
1  1  1  1  0  1  10   3 -15.99240 -15.55424 -15.59724 -16.03540 -15.64206 -15.88436 -13.30273 -13.30299 -13.33835 -15.42253 -18.36669 11.59784 -4.97467 -3.67901
C	 -1.711285674	 0.415987390	 0.000235543
N	 -3.013365674	 0.697927390	 0.000225543
N	 -1.053795674	 0.273637390	 -1.144054457
N	 -1.053805674	 0.273597390	 1.144525543
H	 -0.065725674	 0.059637390	 1.119465543
H	 -1.519005674	 0.374137390	 2.027895543
H	 -3.520515674	 0.807867390	 0.859375543
H	 -3.520545674	 0.807727390	 -0.858914457
H	 -1.518915674	 0.374517390	 -2.027424457
H	 -0.065725674	 0.059637390	 -1.119004457
O	 1.253350000	 -1.137250000	 0.000320000
H	 2.202060000	 -0.974520000	 0.000320000
H	 1.183220000	 -2.097260000	 0.000330000
