13
1  1  1  1  0  1  10   3 -1.54530 -0.36026 -0.94956 -2.13460 -1.03219 -1.69647  4.81802  4.78505  4.72117 -1.54159 -43.98576 77.91092 -25.21925 -10.24749
C	 -1.429808861	 0.302403932	 -0.124304620
N	 -2.731888861	 0.584343932	 -0.124314620
N	 -0.772318861	 0.160053932	 -1.268594620
N	 -0.772328861	 0.160013932	 1.019985380
H	 0.215751139	 -0.053946068	 0.994925380
H	 -1.237528861	 0.260553932	 1.903355380
H	 -3.239038861	 0.694283932	 0.734835380
H	 -3.239068861	 0.694143932	 -0.983454620
H	 -1.237438861	 0.260933932	 -2.151964620
H	 0.215751139	 -0.053946068	 -1.243544620
O	 1.432620000	 -0.358210000	 -0.826760000
H	 2.073680000	 0.257070000	 -1.196880000
H	 1.795720000	 -1.224670000	 -1.036380000
