13
1  1  1  1  0  1  10   3 -15.93960 -15.42301 -15.48612 -16.00270 -15.53811 -15.82475 -12.75026 -12.75506 -12.79788 -15.25837 -20.41762 15.32737 -5.85270 -4.31542
C	 -1.645331890	 0.356143021	 0.000240015
N	 -2.947411890	 0.638083021	 0.000230015
N	 -0.987841890	 0.213793021	 -1.144049985
N	 -0.987851890	 0.213753021	 1.144530015
H	 0.000228110	 -0.000206979	 1.119470015
H	 -1.453051890	 0.314293021	 2.027900015
H	 -3.454561890	 0.748023021	 0.859380015
H	 -3.454591890	 0.747883021	 -0.858909985
H	 -1.452961890	 0.314673021	 -2.027419985
H	 0.000228110	 -0.000206979	 -1.118999985
O	 1.253350000	 -1.137250000	 0.000320000
H	 2.202060000	 -0.974520000	 0.000320000
H	 1.183220000	 -2.097260000	 0.000330000
