13
1  1  1  1  0  1  10   3 -15.03780 -14.41665 -14.52550 -15.14660 -14.58428 -14.93043 -11.03981 -11.05035 -11.10025 -14.10275 -22.01643 21.01704 -7.82337 -5.28000
C	 -2.382921346	 2.162161557	 -0.000072042
N	 -3.369591346	 3.057361557	 -0.000082042
N	 -1.884701346	 1.710131557	 -1.144362042
N	 -1.884731346	 1.710101557	 1.144217958
H	 -1.136001346	 1.030771557	 1.119157958
H	 -2.237331346	 2.029771557	 2.027587958
H	 -3.753821346	 3.406151557	 0.859067958
H	 -3.753921346	 3.406041557	 -0.859222042
H	 -2.237061346	 2.030061557	 -2.027732042
H	 -1.136001346	 1.030771557	 -1.119312042
O	 0.000000000	 0.000000000	 0.000000000
H	 0.740240000	 0.615280000	 0.000000000
H	 0.419270000	 -0.866460000	 0.000010000
