13
1  1  1  1  0  1  10   3 -15.80030 -15.47617 -15.50008 -15.82420 -15.53805 -15.71490 -13.80135 -13.80313 -13.83014 -15.40301 -15.54680  7.02721 -4.14112 -2.74231
C	 -3.039701729	 0.760121446	 -1.755081139
N	 -4.167331729	 1.042061446	 -2.406131139
N	 -1.898161729	 0.617771446	 -2.417321139
N	 -3.042461729	 0.617731446	 -0.435361139
H	 -2.174221729	 0.403771446	 0.036978861
H	 -3.887021729	 0.718271446	 0.097068861
H	 -5.036111729	 1.152001446	 -1.915661139
H	 -4.176991729	 1.151861446	 -3.403761139
H	 -1.859281729	 0.718651446	 -3.414901139
H	 -1.054991729	 0.403771446	 -1.901591139
O	 0.000000000	 0.000000000	 0.000000000
H	 0.740240000	 0.615280000	 0.000000000
H	 0.419270000	 -0.866460000	 0.000010000
