13
1  1  1  1  0  1  10   3 -15.34500 -15.03269 -15.05723 -15.36950 -15.08990 -15.25984 -13.46341 -13.45721 -13.47687 -14.96413 -15.20556  6.56207 -3.64299 -2.67763
C	 -1.843193241	 0.535676129	 0.000226597
N	 -3.145273241	 0.817616129	 0.000216597
N	 -1.185703241	 0.393326129	 -1.144063403
N	 -1.185713241	 0.393286129	 1.144516597
H	 -0.197633241	 0.179326129	 1.119456597
H	 -1.650913241	 0.493826129	 2.027886597
H	 -3.652423241	 0.927556129	 0.859366597
H	 -3.652453241	 0.927416129	 -0.858923403
H	 -1.650823241	 0.494206129	 -2.027433403
H	 -0.197633241	 0.179326129	 -1.119013403
O	 1.253350000	 -1.137250000	 0.000320000
H	 2.202060000	 -0.974520000	 0.000320000
H	 1.183220000	 -2.097260000	 0.000330000
