13
1  1  1  1  0  1  10   3 -15.97550 -15.35916 -15.44952 -16.06580 -15.51258 -15.85514 -12.15895 -12.17603 -12.22988 -15.15794 -23.08785 20.70205 -7.66881 -5.10333
C	 -2.746210260	 0.686708456	 1.585442595
N	 -3.873850260	 0.968648456	 2.236472595
N	 -2.748960260	 0.544358456	 0.265712595
N	 -1.604680260	 0.544318456	 2.247682595
H	 -0.761500260	 0.330358456	 1.731942595
H	 -1.565870260	 0.644858456	 3.245312595
H	 -3.883480260	 1.078588456	 3.234092595
H	 -4.742650260	 1.078448456	 1.746022595
H	 -3.593450260	 0.645238456	 -0.266747405
H	 -1.880740260	 0.330358456	 -0.206627405
O	 0.000000000	 0.000000000	 0.000000000
H	 0.740240000	 0.615280000	 0.000000000
H	 0.419270000	 -0.866460000	 0.000010000
