13
1  1  1  1  0  1  10   3 -16.89700 -16.54647 -16.59015 -16.94060 -16.62823 -16.82220 -14.89120 -14.89293 -14.92460 -16.44026 -16.75828  7.61400 -4.41006 -2.88592
C	 -1.816551761	 0.393380675	 0.000231213
N	 -3.118631761	 0.675320675	 0.000221213
N	 -1.159061761	 0.251030675	 -1.144058787
N	 -1.159071761	 0.250990675	 1.144521213
H	 -0.170991761	 0.037030675	 1.119461213
H	 -1.624271761	 0.351530675	 2.027891213
H	 -3.625781761	 0.785260675	 0.859371213
H	 -3.625811761	 0.785120675	 -0.858918787
H	 -1.624181761	 0.351910675	 -2.027428787
H	 -0.170991761	 0.037030675	 -1.119008787
O	 1.654060000	 -0.358210000	 0.000320000
H	 2.394300000	 0.257070000	 0.000320000
H	 2.073330000	 -1.224670000	 0.000330000
