13
1  1  1  1  0  1  10   3 -17.52190 -16.96135 -17.05536 -17.61590 -17.11280 -17.42635 -14.20684 -14.22128 -14.27512 -16.74266 -22.26541 17.06597 -6.97910 -4.56412
C	 -1.567681066	 0.339484219	 0.000244002
N	 -2.869761066	 0.621424219	 0.000234002
N	 -0.910191066	 0.197134219	 -1.144045998
N	 -0.910201066	 0.197094219	 1.144534002
H	 0.077878934	 -0.016865781	 1.119474002
H	 -1.375401066	 0.297634219	 2.027904002
H	 -3.376911066	 0.731364219	 0.859384002
H	 -3.376941066	 0.731224219	 -0.858905998
H	 -1.375311066	 0.298014219	 -2.027415998
H	 0.077878934	 -0.016865781	 -1.118995998
O	 1.654060000	 -0.358210000	 0.000320000
H	 2.394300000	 0.257070000	 0.000320000
H	 2.073330000	 -1.224670000	 0.000330000
