13
1  1  1  1  0  1  10   3 -15.49270 -14.88575 -14.97946 -15.58640 -15.03952 -15.37630 -11.72917 -11.73939 -11.78828 -14.69477 -22.88609 20.16556 -6.91178 -5.06246
C	 -1.579378107	 0.296298651	 0.000244488
N	 -2.881458107	 0.578238651	 0.000234488
N	 -0.921888107	 0.153948651	 -1.144045512
N	 -0.921898107	 0.153908651	 1.144534488
H	 0.066181893	 -0.060051349	 1.119474488
H	 -1.387098107	 0.254448651	 2.027904488
H	 -3.388608107	 0.688178651	 0.859384488
H	 -3.388638107	 0.688038651	 -0.858905512
H	 -1.387008107	 0.254828651	 -2.027415512
H	 0.066181893	 -0.060051349	 -1.118995512
O	 1.253350000	 -1.137250000	 0.000320000
H	 2.202060000	 -0.974520000	 0.000320000
H	 1.183220000	 -2.097260000	 0.000330000
