13
1  1  1  1  0  1  10   3 -14.34870 -13.48068 -13.72367 -14.59170 -13.80880 -14.28545 -9.10330 -9.13682 -9.19378 -13.27301 -31.53630 36.79953 -11.30996 -7.22629
C	 -1.318810371	 0.285587764	 0.000256791
N	 -2.620890371	 0.567527764	 0.000246791
N	 -0.661320371	 0.143237764	 -1.144033209
N	 -0.661330371	 0.143197764	 1.144546791
H	 0.326749629	 -0.070762236	 1.119486791
H	 -1.126530371	 0.243737764	 2.027916791
H	 -3.128040371	 0.677467764	 0.859396791
H	 -3.128070371	 0.677327764	 -0.858893209
H	 -1.126440371	 0.244117764	 -2.027403209
H	 0.326749629	 -0.070762236	 -1.118983209
O	 1.654060000	 -0.358210000	 0.000320000
H	 2.394300000	 0.257070000	 0.000320000
H	 2.073330000	 -1.224670000	 0.000330000
