13
1  1  1  1  0  1  10   3 -16.22880 -15.84530 -15.87522 -16.25880 -15.91871 -16.13018 -13.86237 -13.86738 -13.90265 -15.73860 -16.99317  9.25746 -4.80304 -3.19985
C	 -2.966396970	 0.741768199	 1.712552194
N	 -4.094036970	 1.023708199	 2.363582194
N	 -2.969146970	 0.599418199	 0.392822194
N	 -1.824866970	 0.599378199	 2.374792194
H	 -0.981686970	 0.385418199	 1.859052194
H	 -1.786056970	 0.699918199	 3.372422194
H	 -4.103666970	 1.133648199	 3.361202194
H	 -4.962836970	 1.133508199	 1.873132194
H	 -3.813636970	 0.700298199	 -0.139637806
H	 -2.100926970	 0.385418199	 -0.079517806
O	 0.000000000	 0.000000000	 0.000000000
H	 0.740240000	 0.615280000	 0.000000000
H	 0.419270000	 -0.866460000	 0.000010000
