10
-1  1 -1  1  0  1   7   3 -14.81550 -13.50559 -13.41637 -14.72630 -13.50685 -14.23834 -8.97408 -8.98350 -9.04633 -14.78336 -50.08570 65.10131 -18.04092 -11.75805
C	 1.660859721	 0.656526759	 -0.021387073
C	 0.174259721	 0.237996759	 -0.001127073
O	 -0.352510279	 0.089696759	 1.131822927
O	 -0.352510279	 0.089696759	 -1.135797073
H	 1.763979721	 1.596346759	 -0.564497073
H	 2.057819721	 0.768316759	 0.985452927
H	 2.239149721	 -0.091483241	 -0.564437073
O	 -2.536680000	 0.645460000	 -0.027370000
H	 -1.879140000	 0.478150000	 -0.724190000
H	 -1.918480000	 0.488160000	 0.704450000
