10
-1  1 -1  1  0  1   7   3 -16.90880 -16.33002 -16.07578 -16.65460 -16.12583 -16.44271 -14.91969 -14.91613 -14.94270 -17.02988 -25.66798 21.34307 -7.74290 -4.96206
C	 2.338137547	 0.672729448	 0.170149668
C	 0.851537547	 0.254199448	 0.190409668
O	 0.324767547	 0.105899448	 1.323359668
O	 0.324767547	 0.105899448	 -0.944260332
H	 2.441257547	 1.612549448	 -0.372960332
H	 2.735097547	 0.784519448	 1.176989668
H	 2.916427547	 -0.075280552	 -0.372900332
O	 -2.168320000	 -0.709350000	 -1.283480000
H	 -1.254310000	 -0.525480000	 -1.560400000
H	 -2.002460000	 -0.536480000	 -0.342690000
