10
-1  1 -1  1  0  1   7   3 -18.56850 -17.74792 -17.56070 -18.38130 -17.64338 -18.08228 -14.81703 -14.82411 -14.85326 -18.86358 -33.00734 34.09250 -12.53464 -7.41410
C	 -3.292991047	 -1.090804793	 2.044738990
C	 -2.038621047	 -0.672564793	 1.246498990
O	 -2.183451047	 -0.533024793	 0.004478990
O	 -0.996421047	 -0.515574793	 1.936508990
H	 -3.504381047	 -0.338614793	 2.805268990
H	 -4.157841047	 -1.210244793	 1.395458990
H	 -3.092851047	 -2.026434793	 2.567598990
O	 0.633780000	 0.178450000	 -0.001090000
H	 0.000000000	 0.000000000	 0.714720000
H	 0.000000000	 0.000000000	 -0.714500000
