10
-1  1 -1  1  0  1   7   3 -16.55810 -16.18127 -15.95817 -16.33500 -15.99410 -16.19651 -15.44403 -15.43971 -15.45234 -16.69929 -18.76759 10.00129 -4.76110 -3.17188
C	 2.543732552	 0.739769390	 0.290264896
C	 1.057132552	 0.321239390	 0.310524896
O	 0.530362552	 0.172939390	 1.443474896
O	 0.530362552	 0.172939390	 -0.824145104
H	 2.646852552	 1.679589390	 -0.252845104
H	 2.940692552	 0.851559390	 1.297104896
H	 3.122022552	 -0.008240610	 -0.252785104
O	 -2.168320000	 -0.709350000	 -1.283480000
H	 -1.254310000	 -0.525480000	 -1.560400000
H	 -2.002460000	 -0.536480000	 -0.342690000
