10
-1  1 -1  1  0  1   7   3 -20.01370 -19.45715 -19.18769 -19.74420 -19.25139 -19.55363 -17.75787 -17.75834 -17.79943 -20.12317 -23.58551 14.51205 -6.22176 -4.82796
C	 2.144078384	 0.533571059	 -0.018923658
C	 0.657478384	 0.115041059	 0.001336342
O	 0.130708384	 -0.033258941	 1.134286342
O	 0.130708384	 -0.033258941	 -1.133333658
H	 2.247198384	 1.473391059	 -0.562033658
H	 2.541038384	 0.645361059	 0.987916342
H	 2.722368384	 -0.214438941	 -0.561973658
O	 -2.536680000	 0.645460000	 -0.027370000
H	 -1.879140000	 0.478150000	 -0.724190000
H	 -1.918480000	 0.488160000	 0.704450000
