10
-1  1 -1  1  0  1   7   3 -20.74450 -20.17373 -19.87254 -20.44330 -19.93246 -20.24685 -18.44037 -18.43843 -18.48358 -21.03004 -25.22173 15.82231 -6.68839 -4.94224
C	 -4.010453979	 -1.129169610	 0.127623372
C	 -2.525013979	 -0.710929610	 0.063513372
O	 -2.029433979	 -0.571389610	 -1.084526628
O	 -1.967443979	 -0.553939610	 1.182183372
H	 -4.573773979	 -0.376979610	 0.680563372
H	 -4.434783979	 -1.248609610	 -0.867096628
H	 -4.098543979	 -2.064799610	 0.680503372
O	 0.633780000	 0.178450000	 -0.001090000
H	 0.000000000	 0.000000000	 0.714720000
H	 0.000000000	 0.000000000	 -0.714500000
