10
-1  1 -1  1  0  1   7   3 -19.72540 -18.79472 -18.55491 -19.48560 -18.63244 -19.15430 -15.64405 -15.64808 -15.71594 -19.61998 -35.86498 35.85065 -11.36718 -8.23848
C	 1.898671983	 0.449196255	 -0.020401707
C	 0.412071983	 0.030666255	 -0.000141707
O	 -0.114698017	 -0.117633745	 1.132808293
O	 -0.114698017	 -0.117633745	 -1.134811707
H	 2.001791983	 1.389016255	 -0.563511707
H	 2.295631983	 0.560986255	 0.986438293
H	 2.476961983	 -0.298813745	 -0.563451707
O	 -1.827330000	 -1.874100000	 -0.027370000
H	 -1.353660000	 -1.388310000	 -0.724190000
H	 -1.382000000	 -1.417370000	 0.704450000
