10
-1  1 -1  1  0  1   7   3 -21.18490 -20.50600 -20.19563 -20.87460 -20.26081 -20.64021 -18.36989 -18.36959 -18.42783 -21.43342 -28.71611 21.23446 -8.06107 -5.89070
C	 -3.915290218	 -1.102376057	 0.125303450
C	 -2.429850218	 -0.684136057	 0.061193450
O	 -1.934270218	 -0.544596057	 -1.086846550
O	 -1.872280218	 -0.527146057	 1.179863450
H	 -4.478610218	 -0.350186057	 0.678243450
H	 -4.339620218	 -1.221816057	 -0.869416550
H	 -4.003380218	 -2.038006057	 0.678183450
O	 0.633780000	 0.178450000	 -0.001090000
H	 0.000000000	 0.000000000	 0.714720000
H	 0.000000000	 0.000000000	 -0.714500000
