10
-1  1 -1  1  0  1   7   3 -14.81560 -13.50577 -13.41657 -14.72640 -13.50705 -14.23852 -8.97428 -8.98369 -9.04652 -14.78354 -50.08571 65.10124 -18.04101 -11.75806
C	 1.759435096	 0.306395560	 -0.021387073
C	 0.272835096	 -0.112134440	 -0.001127073
O	 -0.253934904	 -0.260434440	 1.131822927
O	 -0.253934904	 -0.260434440	 -1.135797073
H	 1.862555096	 1.246215560	 -0.564497073
H	 2.156395096	 0.418185560	 0.985452927
H	 2.337725096	 -0.441614440	 -0.564437073
O	 -1.827330000	 -1.874100000	 -0.027370000
H	 -1.353660000	 -1.388310000	 -0.724190000
H	 -1.382000000	 -1.417370000	 0.704450000
