10
-1  1 -1  1  0  1   7   3 -0.96021  0.93699  0.70841 -1.18879  0.60118 -0.47065  7.20487  7.19003  7.10230 -2.14622 -72.41755 117.15550 -30.11446 -16.76970
C	 1.620198209	 0.163594865	 -0.022372439
C	 0.133598209	 -0.254935135	 -0.002112439
O	 -0.393171791	 -0.403235135	 1.130837561
O	 -0.393171791	 -0.403235135	 -1.136782439
H	 1.723318209	 1.103414865	 -0.565482439
H	 2.017158209	 0.275384865	 0.984467561
H	 2.198488209	 -0.584415135	 -0.565422439
O	 -1.827330000	 -1.874100000	 -0.027370000
H	 -1.353660000	 -1.388310000	 -0.724190000
H	 -1.382000000	 -1.417370000	 0.704450000
