10
-1  1 -1  1  0  1   7   3 -13.23580 -12.02696 -11.94814 -13.15700 -12.04152 -12.70582 -7.76680 -7.77388 -7.81994 -13.97726 -46.92571 63.90461 -19.99532 -10.96085
C	 -3.216919347	 -1.026565350	 -1.720177474
C	 -1.898429347	 -0.608325350	 -1.032987474
O	 -0.895229347	 -0.468785350	 -1.779427474
O	 -1.974899347	 -0.451335350	 0.214602526
H	 -3.981239347	 -0.274375350	 -1.522977474
H	 -3.087039347	 -1.146005350	 -2.793797474
H	 -3.569649347	 -1.962195350	 -1.285417474
O	 0.633780000	 0.178450000	 -0.001090000
H	 0.000000000	 0.000000000	 0.714720000
H	 0.000000000	 0.000000000	 -0.714500000
