10
-1  1 -1  1  0  1   7   3 -16.82510 -16.36003 -16.10689 -16.57190 -16.15093 -16.40258 -15.30587 -15.30149 -15.32107 -16.98674 -21.46345 14.09157 -5.71030 -3.90456
C	 2.430158455	 0.701916622	 -0.257371762
C	 0.943558455	 0.283386622	 -0.237111762
O	 0.416788455	 0.135086622	 0.895838238
O	 0.416788455	 0.135086622	 -1.371781762
H	 2.533278455	 1.641736622	 -0.800481762
H	 2.827118455	 0.813706622	 0.749468238
H	 3.008448455	 -0.046093378	 -0.800421762
O	 -2.195690000	 -0.709350000	 1.236080000
H	 -1.978490000	 -0.525480000	 0.306060000
H	 -1.298020000	 -0.536480000	 1.562840000
