10
-1  1 -1  1  0  1   7   3 -19.61990 -18.92151 -18.68899 -19.38740 -18.76234 -19.13854 -16.47626 -16.48023 -16.51541 -19.86569 -28.85266 25.06975 -9.86069 -6.22208
C	 -3.485993912	 -1.112826665	 -1.866900438
C	 -2.167503912	 -0.694586665	 -1.179710438
O	 -1.164303912	 -0.555046665	 -1.926150438
O	 -2.243973912	 -0.537596665	 0.067879562
H	 -4.250313912	 -0.360636665	 -1.669700438
H	 -3.356113912	 -1.232266665	 -2.940520438
H	 -3.838723912	 -2.048456665	 -1.432140438
O	 0.633780000	 0.178450000	 -0.001090000
H	 0.000000000	 0.000000000	 0.714720000
H	 0.000000000	 0.000000000	 -0.714500000
