10
-1  1 -1  1  0  1   7   3 -15.86340 -15.15668 -14.89296 -15.59970 -14.95042 -15.33896 -13.27388 -13.27047 -13.30169 -16.05797 -30.19871 29.72370 -9.48454 -6.09842
C	 2.224654109	 0.635309960	 -0.140129586
C	 0.738054109	 0.216779960	 -0.119869586
O	 0.211284109	 0.068479960	 1.013080414
O	 0.211284109	 0.068479960	 -1.254539586
H	 2.327774109	 1.575129960	 -0.683239586
H	 2.621614109	 0.747099960	 0.866710414
H	 2.802944109	 -0.112700040	 -0.683179586
O	 -2.195690000	 -0.709350000	 1.236080000
H	 -1.978490000	 -0.525480000	 0.306060000
H	 -1.298020000	 -0.536480000	 1.562840000
