10
-1  1 -1  1  0  1   7   3 -16.39880 -16.02415 -15.79502 -16.16970 -15.83206 -16.03181 -15.27329 -15.26863 -15.27939 -16.56838 -18.56493  9.68682 -4.55843 -3.13184
C	 2.532910627	 0.735219953	 -0.315992851
C	 1.046310627	 0.316689953	 -0.295732851
O	 0.519540627	 0.168389953	 0.837217149
O	 0.519540627	 0.168389953	 -1.430402851
H	 2.636030627	 1.675039953	 -0.859102851
H	 2.929870627	 0.847009953	 0.690847149
H	 3.111200627	 -0.012790047	 -0.859042851
O	 -2.195690000	 -0.709350000	 1.236080000
H	 -1.978490000	 -0.525480000	 0.306060000
H	 -1.298020000	 -0.536480000	 1.562840000
