10
-1  1 -1  1  0  1   7   3 -18.55240 -18.14336 -17.92801 -18.33710 -17.97937 -18.19610 -16.84483 -16.84428 -16.86784 -18.80809 -19.59284  9.78142 -5.43164 -3.56502
C	 -3.755068477	 -1.199087981	 -2.013623402
C	 -2.436578477	 -0.780847981	 -1.326433402
O	 -1.433378477	 -0.641307981	 -2.072873402
O	 -2.513048477	 -0.623857981	 -0.078843402
H	 -4.519388477	 -0.446897981	 -1.816423402
H	 -3.625188477	 -1.318527981	 -3.087243402
H	 -4.107798477	 -2.134717981	 -1.578863402
O	 0.633780000	 0.178450000	 -0.001090000
H	 0.000000000	 0.000000000	 0.714720000
H	 0.000000000	 0.000000000	 -0.714500000
