10
-1  1 -1  1  0  1   7   3 -17.11310 -16.68740 -16.39320 -16.81890 -16.44796 -16.67191 -15.32352 -15.32042 -15.34297 -17.46130 -19.06939 10.18412 -4.79278 -3.78326
C	 -3.036238122	 -3.114058422	 0.131914688
C	 -1.958928122	 -2.009128422	 0.067804688
O	 -1.599508122	 -1.640488422	 -1.080235312
O	 -1.554548122	 -1.594388422	 1.186474688
H	 -3.900178122	 -2.744298422	 0.684854688
H	 -3.343998122	 -3.429658422	 -0.862805312
H	 -2.644708122	 -3.968378422	 0.684794688
O	 0.633780000	 0.178450000	 -0.001090000
H	 0.000000000	 0.000000000	 0.714720000
H	 0.000000000	 0.000000000	 -0.714500000
