10
-1  1 -1  1  0  1   7   3 -19.40760 -18.72039 -18.50702 -19.19430 -18.58259 -18.94956 -16.30310 -16.30890 -16.34053 -19.65044 -28.34956 24.83419 -10.00555 -6.12953
C	 -3.381320827	 -1.119932559	 2.098649211
C	 -2.126950827	 -0.701692559	 1.300409211
O	 -2.271780827	 -0.562152559	 0.058389211
O	 -1.084750827	 -0.544702559	 1.990419211
H	 -3.592710827	 -0.367742559	 2.859179211
H	 -4.246170827	 -1.239372559	 1.449369211
H	 -3.181180827	 -2.055562559	 2.621509211
O	 0.633780000	 0.178450000	 -0.001090000
H	 0.000000000	 0.000000000	 0.714720000
H	 0.000000000	 0.000000000	 -0.714500000
