10
-1  1 -1  1  0  1   7   3 -16.99490 -16.52645 -16.28208 -16.75060 -16.32525 -16.57990 -15.48697 -15.48308 -15.50387 -17.12223 -21.76049 14.61712 -6.01480 -3.96406
C	 2.440935049	 0.706249419	 0.230207282
C	 0.954335049	 0.287719419	 0.250467282
O	 0.427565049	 0.139419419	 1.383417282
O	 0.427565049	 0.139419419	 -0.884202718
H	 2.544055049	 1.646069419	 -0.312902718
H	 2.837895049	 0.818039419	 1.237047282
H	 3.019225049	 -0.041760581	 -0.312842718
O	 -2.168320000	 -0.709350000	 -1.283480000
H	 -1.254310000	 -0.525480000	 -1.560400000
H	 -2.002460000	 -0.536480000	 -0.342690000
