10
-1  1 -1  1  0  1   7   3 -18.82050 -17.98774 -17.77991 -18.61270 -17.85999 -18.30940 -15.02414 -15.02943 -15.06323 -19.10938 -33.56957 34.28489 -12.31499 -7.50970
C	 -3.396302391	 -1.084072893	 -1.817992783
C	 -2.077812391	 -0.665832893	 -1.130802783
O	 -1.074612391	 -0.526292893	 -1.877242783
O	 -2.154282391	 -0.508842893	 0.116787217
H	 -4.160622391	 -0.331882893	 -1.620792783
H	 -3.266422391	 -1.203512893	 -2.891612783
H	 -3.749032391	 -2.019702893	 -1.383232783
O	 0.633780000	 0.178450000	 -0.001090000
H	 0.000000000	 0.000000000	 0.714720000
H	 0.000000000	 0.000000000	 -0.714500000
