10
-1  1 -1  1  0  1   7   3 -20.41720 -19.63086 -19.36199 -20.14840 -19.43473 -19.87423 -17.03963 -17.04202 -17.10584 -20.38497 -30.84150 26.54388 -9.19045 -6.89690
C	 1.968290427	 0.520596602	 -0.019909024
C	 0.481690427	 0.102066602	 0.000350976
O	 -0.045079573	 -0.046233398	 1.133300976
O	 -0.045079573	 -0.046233398	 -1.134319024
H	 2.071410427	 1.460416602	 -0.563019024
H	 2.365250427	 0.632386602	 0.986930976
H	 2.546580427	 -0.227413398	 -0.562959024
O	 -1.827330000	 -1.874100000	 -0.027370000
H	 -1.353660000	 -1.388310000	 -0.724190000
H	 -1.382000000	 -1.417370000	 0.704450000
