10
-1  1 -1  1  0  1   7   3 -9.41578 -8.32833 -8.14937 -9.23682 -8.22228 -8.82810 -5.25194 -5.25147 -5.29719 -10.17855 -45.47176 62.13887 -17.25726 -9.58841
C	 2.019149764	 0.568703297	 -0.022887410
C	 0.532549764	 0.150173297	 -0.002627410
O	 0.005779764	 0.001873297	 1.130322590
O	 0.005779764	 0.001873297	 -1.137297410
H	 2.122269764	 1.508523297	 -0.565997410
H	 2.416109764	 0.680493297	 0.983952590
H	 2.597439764	 -0.179306703	 -0.565937410
O	 -2.195690000	 -0.709350000	 1.236080000
H	 -1.978490000	 -0.525480000	 0.306060000
H	 -1.298020000	 -0.536480000	 1.562840000
