10
-1  1 -1  1  0  1   7   3 -21.19310 -20.38930 -20.08531 -20.88920 -20.15544 -20.60822 -17.78219 -17.78362 -17.85142 -21.40367 -33.03833 28.48838 -9.82397 -7.02975
C	 -3.820126457	 -1.075582504	 0.122983527
C	 -2.334686457	 -0.657342504	 0.058873527
O	 -1.839106457	 -0.517802504	 -1.089166473
O	 -1.777116457	 -0.500352504	 1.177543527
H	 -4.383446457	 -0.323392504	 0.675923527
H	 -4.244456457	 -1.195022504	 -0.871736473
H	 -3.908216457	 -2.011212504	 0.675863527
O	 0.633780000	 0.178450000	 -0.001090000
H	 0.000000000	 0.000000000	 0.714720000
H	 0.000000000	 0.000000000	 -0.714500000
