10
-1  1 -1  1  0  1   7   3 -15.69150 -15.39143 -15.19153 -15.49160 -15.22067 -15.37834 -14.88520 -14.87989 -14.88229 -15.86227 -16.30553  6.65787 -3.69730 -2.51731
C	 2.635662800	 0.768523284	 -0.374613939
C	 1.149062800	 0.349993284	 -0.354353939
O	 0.622292800	 0.201693284	 0.778596061
O	 0.622292800	 0.201693284	 -1.489023939
H	 2.738782800	 1.708343284	 -0.917723939
H	 3.032622800	 0.880313284	 0.632226061
H	 3.213952800	 0.020513284	 -0.917663939
O	 -2.195690000	 -0.709350000	 1.236080000
H	 -1.978490000	 -0.525480000	 0.306060000
H	 -1.298020000	 -0.536480000	 1.562840000
