10
-1  1 -1  1  0  1   7   3 -19.72530 -18.79459 -18.55478 -19.48550 -18.63228 -19.15415 -15.64392 -15.64795 -15.71581 -19.61986 -35.86495 35.85068 -11.36712 -8.23846
C	 1.854147186	 0.607344479	 -0.020401707
C	 0.367547186	 0.188814479	 -0.000141707
O	 -0.159222814	 0.040514479	 1.132808293
O	 -0.159222814	 0.040514479	 -1.134811707
H	 1.957267186	 1.547164479	 -0.563511707
H	 2.251107186	 0.719134479	 0.986438293
H	 2.432437186	 -0.140665521	 -0.563451707
O	 -2.536680000	 0.645460000	 -0.027370000
H	 -1.879140000	 0.478150000	 -0.724190000
H	 -1.918480000	 0.488160000	 0.704450000
