10
-1  1 -1  1  0  1   7   3  4.01693  5.81079  5.59516  3.80129  5.48303  4.47049 11.72884 11.71996 11.62448  0.89586 -66.78658 118.92255 -35.21643 -16.02368
C	 -2.939671925	 -0.974293728	 1.829098103
C	 -1.685301925	 -0.556053728	 1.030858103
O	 -1.830131925	 -0.416513728	 -0.211161897
O	 -0.643101925	 -0.399063728	 1.720868103
H	 -3.151061925	 -0.222103728	 2.589628103
H	 -3.804521925	 -1.093733728	 1.179818103
H	 -2.739531925	 -1.909923728	 2.351958103
O	 0.633780000	 0.178450000	 -0.001090000
H	 0.000000000	 0.000000000	 0.714720000
H	 0.000000000	 0.000000000	 -0.714500000
