10
-1  1 -1  1  0  1   7   3 -9.01521 -7.90952 -7.75865 -8.86435 -7.83093 -8.44732 -4.88775 -4.88664 -4.93154 -9.86198 -46.71297 65.58689 -18.88470 -9.85120
C	 2.029745040	 0.572169535	 -0.010023174
C	 0.543145040	 0.153639535	 0.010236826
O	 0.016375040	 0.005339535	 1.143186826
O	 0.016375040	 0.005339535	 -1.124433174
H	 2.132865040	 1.511989535	 -0.553133174
H	 2.426705040	 0.683959535	 0.996816826
H	 2.608035040	 -0.175840465	 -0.553073174
O	 -2.168320000	 -0.709350000	 -1.283480000
H	 -1.254310000	 -0.525480000	 -1.560400000
H	 -2.002460000	 -0.536480000	 -0.342690000
