10
-1  1 -1  1  0  1   7   3 -18.19250 -17.58052 -17.24371 -17.85560 -17.30640 -17.64448 -15.46799 -15.46451 -15.51322 -18.53147 -24.93481 18.67974 -6.85105 -5.42535
C	 -4.015946412	 1.021787102	 0.127095625
C	 -2.520396412	 0.641277102	 0.062985625
O	 -2.021436412	 0.514337102	 -1.085054375
O	 -1.959026412	 0.498447102	 1.181655625
H	 -4.127696412	 1.954867102	 0.680035625
H	 -4.443146412	 1.130517102	 -0.867624375
H	 -4.560046412	 0.255557102	 0.679975625
O	 0.633780000	 0.178450000	 -0.001090000
H	 0.000000000	 0.000000000	 0.714720000
H	 0.000000000	 0.000000000	 -0.714500000
