10
-1  1 -1  1  0  1   7   3 -19.47780 -18.90124 -18.68017 -19.25670 -18.74815 -19.05591 -16.92408 -16.92825 -16.96086 -19.71158 -24.63114 18.08021 -8.08554 -5.07511
C	 -3.469650608	 -1.149060325	 2.152559433
C	 -2.215280608	 -0.730820325	 1.354319433
O	 -2.360110608	 -0.591280325	 0.112299433
O	 -1.173080608	 -0.573830325	 2.044329433
H	 -3.681040608	 -0.396870325	 2.913089433
H	 -4.334500608	 -1.268500325	 1.503279433
H	 -3.269510608	 -2.084690325	 2.675419433
O	 0.633780000	 0.178450000	 -0.001090000
H	 0.000000000	 0.000000000	 0.714720000
H	 0.000000000	 0.000000000	 -0.714500000
