10
-1  1 -1  1  0  1   7   3 -18.21990 -17.48746 -17.14739 -17.87990 -17.21396 -17.62468 -14.89326 -14.89029 -14.95133 -18.53859 -29.00032 25.30405 -8.33259 -6.50973
C	 -2.821188833	 -2.893498638	 0.124686094
C	 -1.743878833	 -1.788568638	 0.060576094
O	 -1.384458833	 -1.419928638	 -1.087463906
O	 -1.339498833	 -1.373828638	 1.179246094
H	 -3.685128833	 -2.523738638	 0.677626094
H	 -3.128948833	 -3.209098638	 -0.870033906
H	 -2.429658833	 -3.747818638	 0.677566094
O	 0.633780000	 0.178450000	 -0.001090000
H	 0.000000000	 0.000000000	 0.714720000
H	 0.000000000	 0.000000000	 -0.714500000
