10
-1  1 -1  1  0  1   7   3 -18.19270 -17.58077 -17.24396 -17.85590 -17.30666 -17.64474 -15.46827 -15.46479 -15.51350 -18.53170 -24.93486 18.67950 -6.85104 -5.42531
C	 -2.892871929	 -2.967018566	 0.127095625
C	 -1.815561929	 -1.862088566	 0.062985625
O	 -1.456141929	 -1.493448566	 -1.085054375
O	 -1.411181929	 -1.447348566	 1.181655625
H	 -3.756811929	 -2.597258566	 0.680035625
H	 -3.200631929	 -3.282618566	 -0.867624375
H	 -2.501341929	 -3.821338566	 0.679975625
O	 0.633780000	 0.178450000	 -0.001090000
H	 0.000000000	 0.000000000	 0.714720000
H	 0.000000000	 0.000000000	 -0.714500000
