10
-1  1 -1  1  0  1   7   3 -20.03440 -19.55631 -19.27454 -19.75270 -19.32864 -19.58700 -18.16602 -18.16256 -18.19391 -20.34204 -22.37505 11.79132 -5.60734 -4.15097
C	 -4.105617740	 -1.155963163	 0.129943295
C	 -2.620177740	 -0.737723163	 0.065833295
O	 -2.124597740	 -0.598183163	 -1.082206705
O	 -2.062607740	 -0.580733163	 1.184503295
H	 -4.668937740	 -0.403773163	 0.682883295
H	 -4.529947740	 -1.275403163	 -0.864776705
H	 -4.193707740	 -2.091593163	 0.682823295
O	 0.633780000	 0.178450000	 -0.001090000
H	 0.000000000	 0.000000000	 0.714720000
H	 0.000000000	 0.000000000	 -0.714500000
