10
-1  1 -1  1  0  1   7   3 -18.21970 -17.48718 -17.14710 -17.87970 -17.21366 -17.62445 -14.89294 -14.88997 -14.95101 -18.53832 -29.00030 25.30435 -8.33259 -6.50977
C	 -3.916434842	 0.996467497	 0.124686094
C	 -2.420884842	 0.615957497	 0.060576094
O	 -1.921924842	 0.489017497	 -1.087463906
O	 -1.859514842	 0.473127497	 1.179246094
H	 -4.028184842	 1.929547497	 0.677626094
H	 -4.343634842	 1.105197497	 -0.870033906
H	 -4.460534842	 0.230237497	 0.677566094
O	 0.633780000	 0.178450000	 -0.001090000
H	 0.000000000	 0.000000000	 0.714720000
H	 0.000000000	 0.000000000	 -0.714500000
