10
-1  1 -1  1  0  1   7   3 -13.23670 -11.98993 -11.79814 -13.04490 -11.88097 -12.58403 -7.37635 -7.37875 -7.45022 -13.68035 -48.77814 62.53145 -16.22177 -11.21187
C	 -2.606139543	 -2.672938853	 0.117457500
C	 -1.528829543	 -1.568008853	 0.053347500
O	 -1.169409543	 -1.199368853	 -1.094692500
O	 -1.124449543	 -1.153268853	 1.172017500
H	 -3.470079543	 -2.303178853	 0.670397500
H	 -2.913899543	 -2.988538853	 -0.877262500
H	 -2.214609543	 -3.527258853	 0.670337500
O	 0.633780000	 0.178450000	 -0.001090000
H	 0.000000000	 0.000000000	 0.714720000
H	 0.000000000	 0.000000000	 -0.714500000
