10
-1  1 -1  1  0  1   7   3 12.15980 13.91958 13.85827 12.09850 13.77127 12.75976 18.40827 18.41036 18.30507  7.48831 -73.84231 135.68896 -38.53726 -15.82107
C	 1.824150035	 0.505129593	 -0.130138402
C	 0.337550035	 0.086599593	 -0.109878402
O	 -0.189219965	 -0.061700407	 1.023071598
O	 -0.189219965	 -0.061700407	 -1.244548402
H	 1.927270035	 1.444949593	 -0.673248402
H	 2.221110035	 0.616919593	 0.876701598
H	 2.402440035	 -0.242880407	 -0.673188402
O	 -2.168320000	 -0.709350000	 -1.283480000
H	 -1.254310000	 -0.525480000	 -1.560400000
H	 -2.002460000	 -0.536480000	 -0.342690000
