10
-1  1 -1  1  0  1   7   3 -15.79090 -14.46474 -14.34194 -15.66810 -14.43133 -15.17435 -9.95134 -9.96032 -10.02666 -16.16024 -53.51191 68.35847 -19.10481 -11.90199
C	 -3.534635174	 -0.995201846	 0.116023760
C	 -2.049195174	 -0.576961846	 0.051913760
O	 -1.553615174	 -0.437421846	 -1.096126240
O	 -1.491625174	 -0.419971846	 1.170583760
H	 -4.097955174	 -0.243011846	 0.668963760
H	 -3.958965174	 -1.114641846	 -0.878696240
H	 -3.622725174	 -1.930831846	 0.668903760
O	 0.633780000	 0.178450000	 -0.001090000
H	 0.000000000	 0.000000000	 0.714720000
H	 0.000000000	 0.000000000	 -0.714500000
