10
-1  1 -1  1  0  1   7   3 -16.75540 -16.18142 -15.91461 -16.48850 -15.96516 -16.27905 -14.75387 -14.74971 -14.77651 -16.91313 -25.23586 20.48217 -7.28449 -4.87494
C	 2.327406282	 0.668613291	 -0.198750674
C	 0.840806282	 0.250083291	 -0.178490674
O	 0.314036282	 0.101783291	 0.954459326
O	 0.314036282	 0.101783291	 -1.313160674
H	 2.430526282	 1.608433291	 -0.741860674
H	 2.724366282	 0.780403291	 0.808089326
H	 2.905696282	 -0.079396709	 -0.741800674
O	 -2.195690000	 -0.709350000	 1.236080000
H	 -1.978490000	 -0.525480000	 0.306060000
H	 -1.298020000	 -0.536480000	 1.562840000
