10
-1  1 -1  1  0  1   7   3 -17.77290 -17.26253 -16.94279 -17.45320 -17.00158 -17.27748 -15.55645 -15.55294 -15.58808 -18.12490 -21.68593 13.78898 -5.69982 -4.52812
C	 -2.964555025	 -3.040538494	 0.129505157
C	 -1.887245025	 -1.935608494	 0.065395157
O	 -1.527825025	 -1.566968494	 -1.082644843
O	 -1.482865025	 -1.520868494	 1.184065157
H	 -3.828495025	 -2.670778494	 0.682445157
H	 -3.272315025	 -3.356138494	 -0.865214843
H	 -2.573025025	 -3.894858494	 0.682385157
O	 0.633780000	 0.178450000	 -0.001090000
H	 0.000000000	 0.000000000	 0.714720000
H	 0.000000000	 0.000000000	 -0.714500000
