12
0  1  0  1  0  1   3   9 -4.01191 -3.77572 -3.86977 -4.10596 -3.94074 -4.03620 -2.17270 -2.17708 -2.17695 -3.78460 -3.80495  3.24186 -1.19491 -2.02661
O	 0.819380000	 -0.512540000	 0.000200000
H	 0.000000000	 0.000000000	 0.000000000
H	 1.508020000	 0.154560000	 -0.000170000
C	 -2.778479961	 0.248795049	 1.363610000
C	 -2.779239961	 0.248025049	 -1.362730000
S	 -2.331759961	 1.346245049	 -0.000000000
H	 -2.189079961	 -0.664494951	 1.324360000
H	 -2.562259961	 0.774525049	 2.290060000
H	 -3.840079961	 0.014545049	 1.328600000
H	 -2.189929961	 -0.665304951	 -1.323240000
H	 -3.840849961	 0.013885049	 -1.327060000
H	 -2.563449961	 0.773185049	 -2.289610000
