12
0  1  0  1  0  1   3   9 -3.68809 -3.07001 -3.34607 -3.96415 -3.46443 -3.75374  0.90290  0.90017  0.89920 -3.01615 -10.60069 16.59842 -3.81928 -5.19459
O	 0.819380000	 -0.512540000	 0.000200000
H	 0.000000000	 0.000000000	 0.000000000
H	 1.508020000	 0.154560000	 -0.000170000
C	 -2.518720663	 -1.173780000	 0.120373793
C	 -1.155790663	 -1.174830000	 -2.240846207
S	 -1.977090663	 0.000000000	 -1.141476207
H	 -1.661590663	 -1.670010000	 0.569923793
H	 -3.047440663	 -0.610370000	 0.884893793
H	 -3.195990663	 -1.907450000	 -0.311066207
H	 -0.338070663	 -1.671140000	 -1.723126207
H	 -1.868450663	 -1.908400000	 -2.611106207
H	 -0.757910663	 -0.612130000	 -3.081386207
