12
0  1  0  1  0  1   3   9  9.75341 10.96404 10.03501  8.82438  9.90420  9.25731 17.50370 17.49068 17.43707 10.41175 -26.75060 61.01406 -14.87493 -8.97678
O	 3.073920000	 1.182900000	 0.000200000
H	 2.108040000	 1.217080000	 0.000000000
H	 3.336750000	 2.104940000	 -0.000170000
C	 0.751065612	 -0.833601272	 1.363610000
C	 0.750785612	 -0.834651272	 -1.362730000
S	 0.589205612	 0.340178728	 0.000000000
H	 1.718135612	 -1.329831272	 1.324360000
H	 0.675445612	 -0.270191272	 2.290060000
H	 -0.051184388	 -1.567271272	 1.328600000
H	 1.717815612	 -1.330961272	 -1.323240000
H	 -0.051524388	 -1.568221272	 -1.327060000
H	 0.675095612	 -0.271951272	 -2.289610000
