12
0  1  0  1  0  1   3   9 -2.71845 -2.36914 -2.46033 -2.80964 -2.54507 -2.69755  0.19492  0.18593  0.18704 -2.28153 -4.34799  6.59804 -1.42328 -3.10830
O	 2.817550000	 -0.512540000	 1.626940000
H	 2.108040000	 -0.000000000	 1.217080000
H	 3.414110000	 0.154560000	 1.970940000
C	 -0.112396004	 -1.173780000	 1.205267892
C	 -0.112676004	 -1.174830000	 -1.521072108
S	 -0.274256004	 0.000000000	 -0.158342108
H	 0.854673996	 -1.670010000	 1.166017892
H	 -0.188016004	 -0.610370000	 2.131717892
H	 -0.914646004	 -1.907450000	 1.170257892
H	 0.854353996	 -1.671140000	 -1.481582108
H	 -0.914986004	 -1.908400000	 -1.485402108
H	 -0.188366004	 -0.612130000	 -2.447952108
