12
0  1  0  1  0  1   3   9 -2.74201 -2.52512 -2.56663 -2.78352 -2.62877 -2.71744 -0.88103 -0.88572 -0.88383 -2.52269 -2.61535  2.76774 -0.69901 -1.97607
O	 2.817750000	 -0.512540000	 -1.626600000
H	 2.108040000	 -0.000000000	 -1.217080000
H	 3.413940000	 0.154560000	 -1.971230000
C	 -0.349906763	 -1.173780000	 1.659079295
C	 -0.350186763	 -1.174830000	 -1.067260705
S	 -0.511766763	 0.000000000	 0.295469295
H	 0.617163237	 -1.670010000	 1.619829295
H	 -0.425526763	 -0.610370000	 2.585529295
H	 -1.152156763	 -1.907450000	 1.624069295
H	 0.616843237	 -1.671140000	 -1.027770705
H	 -1.152496763	 -1.908400000	 -1.031590705
H	 -0.425876763	 -0.612130000	 -1.994140705
