12
0  1  0  1  0  1   3   9  0.73769  1.73097  1.18952  0.19624  1.04441  0.54533  7.64777  7.64292  7.62222  1.59382 -18.35395 35.40683 -7.51952 -7.93954
O	 0.819380000	 -0.512540000	 0.000200000
H	 0.000000000	 0.000000000	 0.000000000
H	 1.508020000	 0.154560000	 -0.000170000
C	 -0.935511380	 -1.173780000	 2.114674464
C	 -2.298921380	 -1.174830000	 -0.246265536
S	 -1.757481380	 0.000000000	 1.014684464
H	 -0.117621380	 -1.670010000	 1.597144464
H	 -0.537771380	 -0.610370000	 2.954814464
H	 -1.647771380	 -1.907450000	 2.485484464
H	 -1.441701380	 -1.671140000	 -0.695575536
H	 -2.975901380	 -1.908400000	 0.185784464
H	 -2.827911380	 -0.612130000	 -1.011115536
