12
0  1  0  1  0  1   3   9 -3.87078 -3.50209 -3.70323 -4.07193 -3.78370 -3.94686 -1.23922 -1.25095 -1.24272 -3.29260 -7.45006  9.76876 -2.63867 -2.97264
O	 3.073920000	 1.182900000	 0.000200000
H	 2.108040000	 1.217080000	 0.000000000
H	 3.336750000	 2.104940000	 -0.000170000
C	 0.208624759	 -1.146780297	 1.363610000
C	 0.208344759	 -1.147830297	 -1.362730000
S	 0.046764759	 0.026999703	 0.000000000
H	 1.175694759	 -1.643010297	 1.324360000
H	 0.133004759	 -0.583370297	 2.290060000
H	 -0.593625241	 -1.880450297	 1.328600000
H	 1.175374759	 -1.644140297	 -1.323240000
H	 -0.593965241	 -1.881400297	 -1.327060000
H	 0.132654759	 -0.585130297	 -2.289610000
