12
0  1  0  1  0  1   3   9  3.55274  4.68541  4.10714  2.97447  3.94962  3.37323 11.65420 11.64493 11.61497  4.67309 -21.32935 42.05862 -6.78568 -9.27050
O	 0.819380000	 -0.512540000	 0.000200000
H	 0.000000000	 0.000000000	 0.000000000
H	 1.508020000	 0.154560000	 -0.000170000
C	 -1.102836770	 -1.992083596	 1.363610000
C	 -1.102546770	 -1.993133596	 -1.362730000
S	 -1.829896770	 -1.056493596	 -0.000000000
H	 -0.017206770	 -1.938293596	 1.324360000
H	 -1.450026770	 -1.541973596	 2.290060000
H	 -1.430766770	 -3.028583596	 1.328600000
H	 -0.016926770	 -1.939433596	 -1.323240000
H	 -1.430586770	 -3.029583596	 -1.327060000
H	 -1.449456770	 -1.543673596	 -2.289610000
