12
0  1  0  1  0  1   3   9 -4.10107 -3.56159 -3.77259 -4.31207 -3.88281 -4.13080  0.16770  0.16521  0.16564 -3.55401 -9.03732 12.79520 -2.49948 -4.81242
O	 0.819380000	 -0.512540000	 0.000200000
H	 0.000000000	 0.000000000	 0.000000000
H	 1.508020000	 0.154560000	 -0.000170000
C	 -1.445942415	 -2.190176146	 1.363610000
C	 -1.445652415	 -2.191226146	 -1.362730000
S	 -2.173002415	 -1.254586146	 -0.000000000
H	 -0.360312415	 -2.136386146	 1.324360000
H	 -1.793132415	 -1.740066146	 2.290060000
H	 -1.773872415	 -3.226676146	 1.328600000
H	 -0.360032415	 -2.137526146	 -1.323240000
H	 -1.773692415	 -3.227676146	 -1.327060000
H	 -1.792562415	 -1.741766146	 -2.289610000
