12
0  1  0  1  0  1   3   9 -2.83213 -2.55667 -2.61726 -2.89271 -2.69052 -2.80681 -0.50135 -0.50846 -0.50703 -2.51887 -3.33637  4.28722 -0.99370 -2.47603
O	 2.817550000	 -0.512540000	 1.626940000
H	 2.108040000	 -0.000000000	 1.217080000
H	 3.414110000	 0.154560000	 1.970940000
C	 -0.231510804	 -1.173780000	 1.136496787
C	 -0.231790804	 -1.174830000	 -1.589843213
S	 -0.393370804	 0.000000000	 -0.227113213
H	 0.735559196	 -1.670010000	 1.097246787
H	 -0.307130804	 -0.610370000	 2.062946787
H	 -1.033760804	 -1.907450000	 1.101486787
H	 0.735239196	 -1.671140000	 -1.550353213
H	 -1.034100804	 -1.908400000	 -1.554173213
H	 -0.307480804	 -0.612130000	 -2.516723213
