12
0  1  0  1  0  1   3   9 18.86660 20.39858 19.44391 17.91200 19.28273 18.47555 29.43558 29.42855 29.39369 19.80512 -28.71051 73.59926 -12.88446 -12.19917
O	 2.817550000	 -0.512540000	 1.626940000
H	 2.108040000	 -0.000000000	 1.217080000
H	 3.414110000	 0.154560000	 1.970940000
C	 0.602292797	 -1.173780000	 1.617894524
C	 0.602012797	 -1.174830000	 -1.108445476
S	 0.440432797	 0.000000000	 0.254284524
H	 1.569362797	 -1.670010000	 1.578644524
H	 0.526672797	 -0.610370000	 2.544344524
H	 -0.199957203	 -1.907450000	 1.582884524
H	 1.569042797	 -1.671140000	 -1.068955476
H	 -0.200297203	 -1.908400000	 -1.072775476
H	 0.526322797	 -0.612130000	 -2.035325476
