12
0  1  0  1  0  1   3   9 -3.86156 -3.62353 -3.73457 -3.97260 -3.79966 -3.89774 -2.17167 -2.18291 -2.17840 -3.56173 -4.82417  4.61448 -1.38922 -1.96282
O	 3.073920000	 1.182900000	 0.000200000
H	 2.108040000	 1.217080000	 0.000000000
H	 3.336750000	 2.104940000	 -0.000170000
C	 -0.008351582	 -1.272051908	 1.363610000
C	 -0.008631582	 -1.273101908	 -1.362730000
S	 -0.170211582	 -0.098271908	 0.000000000
H	 0.958718418	 -1.768281908	 1.324360000
H	 -0.083971582	 -0.708641908	 2.290060000
H	 -0.810601582	 -2.005721908	 1.328600000
H	 0.958398418	 -1.769411908	 -1.323240000
H	 -0.810941582	 -2.006671908	 -1.327060000
H	 -0.084321582	 -0.710401908	 -2.289610000
