12
0  1  0  1  0  1   3   9 -0.81810 -0.34037 -0.36469 -0.84242 -0.47967 -0.69827  3.29067  3.28034  3.25928 -0.19918 -5.04850 11.03060 -1.87638 -4.30489
O	 2.561380000	 -2.070640000	 0.000200000
H	 2.108040000	 -1.217080000	 0.000000000
H	 3.491310000	 -1.837240000	 -0.000170000
C	 -0.172156830	 -0.980934891	 1.363610000
C	 -0.172436830	 -0.981984891	 -1.362730000
S	 -0.334016830	 0.192845109	 0.000000000
H	 0.794913170	 -1.477164891	 1.324360000
H	 -0.247776830	 -0.417524891	 2.290060000
H	 -0.974406830	 -1.714604891	 1.328600000
H	 0.794593170	 -1.478294891	 -1.323240000
H	 -0.974746830	 -1.715554891	 -1.327060000
H	 -0.248126830	 -0.419284891	 -2.289610000
