12
0  1  0  1  0  1   3   9 -4.56267 -4.17071 -4.31132 -4.70328 -4.40506 -4.57708 -1.52885 -1.53015 -1.52924 -4.17640 -6.42231  7.63348 -1.97079 -3.41679
O	 0.819380000	 -0.512540000	 0.000200000
H	 0.000000000	 0.000000000	 0.000000000
H	 1.508020000	 0.154560000	 -0.000170000
C	 -2.738397404	 -1.173780000	 -0.006456897
C	 -1.375467404	 -1.174830000	 -2.367676897
S	 -2.196767404	 0.000000000	 -1.268306897
H	 -1.881267404	 -1.670010000	 0.443093103
H	 -3.267117404	 -0.610370000	 0.758063103
H	 -3.415667404	 -1.907450000	 -0.437896897
H	 -0.557747404	 -1.671140000	 -1.849956897
H	 -2.088127404	 -1.908400000	 -2.737936897
H	 -0.977587404	 -0.612130000	 -3.208216897
