12
0  1  0  1  0  1   3   9 -4.13447 -3.58885 -3.91018 -4.45580 -4.02353 -4.27170 -0.08938 -0.09191 -0.08780 -3.46679 -9.20136 14.47511 -4.24865 -4.49188
O	 0.819380000	 -0.512540000	 0.000200000
H	 0.000000000	 0.000000000	 0.000000000
H	 1.508020000	 0.154560000	 -0.000170000
C	 -2.354523605	 0.004023222	 1.363610000
C	 -2.355283605	 0.003253222	 -1.362730000
S	 -1.907803605	 1.101473222	 -0.000000000
H	 -1.765123605	 -0.909266778	 1.324360000
H	 -2.138303605	 0.529753222	 2.290060000
H	 -3.416123605	 -0.230226778	 1.328600000
H	 -1.765973605	 -0.910076778	 -1.323240000
H	 -3.416893605	 -0.230886778	 -1.327060000
H	 -2.139493605	 0.528413222	 -2.289610000
