12
0  1  0  1  0  1   3   9 -2.93635 -2.24826 -2.54304 -3.23114 -2.66736 -2.99488  2.36119  2.35684  2.35309 -2.18959 -11.88150 19.16449 -3.48403 -5.98856
O	 0.819380000	 -0.512540000	 0.000200000
H	 0.000000000	 0.000000000	 0.000000000
H	 1.508020000	 0.154560000	 -0.000170000
C	 -1.331573867	 -2.124145296	 1.363610000
C	 -1.331283867	 -2.125195296	 -1.362730000
S	 -2.058633867	 -1.188555296	 -0.000000000
H	 -0.245943867	 -2.070355296	 1.324360000
H	 -1.678763867	 -1.674035296	 2.290060000
H	 -1.659503867	 -3.160645296	 1.328600000
H	 -0.245663867	 -2.071495296	 -1.323240000
H	 -1.659323867	 -3.161645296	 -1.327060000
H	 -1.678193867	 -1.675735296	 -2.289610000
