12
0  1  0  1  0  1   3   9 -3.98179 -3.68616 -3.83441 -4.13004 -3.90713 -4.03338 -1.87144 -1.88311 -1.87689 -3.55448 -5.95434  6.71992 -1.90696 -2.41310
O	 3.073920000	 1.182900000	 0.000200000
H	 2.108040000	 1.217080000	 0.000000000
H	 3.336750000	 2.104940000	 -0.000170000
C	 0.100136589	 -1.209416102	 1.363610000
C	 0.099856589	 -1.210466102	 -1.362730000
S	 -0.061723411	 -0.035636102	 0.000000000
H	 1.067206589	 -1.705646102	 1.324360000
H	 0.024516589	 -0.646006102	 2.290060000
H	 -0.702113411	 -1.943086102	 1.328600000
H	 1.066886589	 -1.706776102	 -1.323240000
H	 -0.702453411	 -1.944036102	 -1.327060000
H	 0.024166589	 -0.647766102	 -2.289610000
