12
0  1  0  1  0  1   3   9 -4.14200 -3.89220 -3.96830 -4.21810 -4.03845 -4.14163 -2.14892 -2.14850 -2.14688 -3.96387 -4.12449  3.45826 -1.03928 -2.25836
O	 0.819380000	 -0.512540000	 0.000200000
H	 0.000000000	 0.000000000	 0.000000000
H	 1.508020000	 0.154560000	 -0.000170000
C	 -1.594566898	 -1.173780000	 2.495181138
C	 -2.957976898	 -1.174830000	 0.134241138
S	 -2.416536898	 0.000000000	 1.395191138
H	 -0.776676898	 -1.670010000	 1.977651138
H	 -1.196826898	 -0.610370000	 3.335321138
H	 -2.306826898	 -1.907450000	 2.865991138
H	 -2.100756898	 -1.671140000	 -0.315068862
H	 -3.634956898	 -1.908400000	 0.566291138
H	 -3.486966898	 -0.612130000	 -0.630608862
