12
0  1  0  1  0  1   3   9 -3.68712 -3.06897 -3.34503 -3.96319 -3.46340 -3.75276  0.90459  0.90185  0.90087 -3.01516 -10.60287 16.60259 -3.81938 -5.19550
O	 0.819380000	 -0.512540000	 0.000200000
H	 0.000000000	 0.000000000	 0.000000000
H	 1.508020000	 0.154560000	 -0.000170000
C	 -1.155196553	 -1.173780000	 2.241510022
C	 -2.518606553	 -1.174830000	 -0.119429978
S	 -1.977166553	 0.000000000	 1.141520022
H	 -0.337306553	 -1.670010000	 1.723980022
H	 -0.757456553	 -0.610370000	 3.081650022
H	 -1.867456553	 -1.907450000	 2.612320022
H	 -1.661386553	 -1.671140000	 -0.568739978
H	 -3.195586553	 -1.908400000	 0.312620022
H	 -3.047596553	 -0.612130000	 -0.884279978
