12
0  1  0  1  0  1   3   9 -2.73878 -2.52193 -2.56332 -2.78016 -2.62545 -2.71410 -0.87817 -0.88285 -0.88097 -2.51945 -2.61301  2.76740 -0.69834 -1.97550
O	 2.817550000	 -0.512540000	 1.626940000
H	 2.108040000	 -0.000000000	 1.217080000
H	 3.414110000	 0.154560000	 1.970940000
C	 -0.350625604	 -1.173780000	 1.067725681
C	 -0.350905604	 -1.174830000	 -1.658614319
S	 -0.512485604	 0.000000000	 -0.295884319
H	 0.616444396	 -1.670010000	 1.028475681
H	 -0.426245604	 -0.610370000	 1.994175681
H	 -1.152875604	 -1.907450000	 1.032715681
H	 0.616124396	 -1.671140000	 -1.619124319
H	 -1.153215604	 -1.908400000	 -1.622944319
H	 -0.426595604	 -0.612130000	 -2.585494319
