12
0  1  0  1  0  1   3   9  4.31302  5.23723  4.77309  3.84888  4.64023  4.18151 11.25660 11.24801 11.24510  5.46481 -14.80448 34.20812 -6.19887 -7.73996
O	 2.817550000	 -0.512540000	 1.626940000
H	 2.108040000	 -0.000000000	 1.217080000
H	 3.414110000	 0.154560000	 1.970940000
C	 0.364063197	 -1.173780000	 1.480352314
C	 0.363783197	 -1.174830000	 -1.245987686
S	 0.202203197	 0.000000000	 0.116742314
H	 1.331133197	 -1.670010000	 1.441102314
H	 0.288443197	 -0.610370000	 2.406802314
H	 -0.438186803	 -1.907450000	 1.445342314
H	 1.330813197	 -1.671140000	 -1.206497686
H	 -0.438526803	 -1.908400000	 -1.210317686
H	 0.288093197	 -0.612130000	 -2.172867686
