12
0  1  0  1  0  1   3   9 -4.29888 -4.03769 -4.12435 -4.38554 -4.19631 -4.30359 -2.09347 -2.09175 -2.08675 -4.14361 -4.37705  3.67896 -0.94215 -2.50337
O	 0.819380000	 -0.512540000	 0.000200000
H	 0.000000000	 0.000000000	 0.000000000
H	 1.508020000	 0.154560000	 -0.000170000
C	 -1.789048059	 -2.388268695	 1.363610000
C	 -1.788758059	 -2.389318695	 -1.362730000
S	 -2.516108059	 -1.452678695	 -0.000000000
H	 -0.703418059	 -2.334478695	 1.324360000
H	 -2.136238059	 -1.938158695	 2.290060000
H	 -2.116978059	 -3.424768695	 1.328600000
H	 -0.703138059	 -2.335618695	 -1.323240000
H	 -2.116798059	 -3.425768695	 -1.327060000
H	 -2.135668059	 -1.939858695	 -2.289610000
