12
0  1  0  1  0  1   3   9 11.44790 13.04413 11.89041 10.29410 11.72133 10.86089 21.71349 21.70779 21.62400 11.69977 -30.54964 72.09891 -17.59297 -12.25653
O	 3.253540000	 -0.512540000	 0.000200000
H	 2.434160000	 -0.000000000	 0.000000000
H	 3.942180000	 0.154560000	 -0.000170000
C	 0.887592633	 -1.173780000	 1.363610000
C	 0.887312633	 -1.174830000	 -1.362730000
S	 0.725732633	 0.000000000	 0.000000000
H	 1.854662633	 -1.670010000	 1.324360000
H	 0.811972633	 -0.610370000	 2.290060000
H	 0.085342633	 -1.907450000	 1.328600000
H	 1.854342633	 -1.671140000	 -1.323240000
H	 0.085002633	 -1.908400000	 -1.327060000
H	 0.811622633	 -0.612130000	 -2.289610000
