12
0  1  0  1  0  1   3   9 13.66270 15.27633 14.25579 12.64210 14.07922 13.21295 23.99327 23.98250 23.89848 13.88881 -32.59277 73.71973 -15.00783 -12.23032
O	 0.819380000	 -0.512540000	 0.000200000
H	 0.000000000	 0.000000000	 0.000000000
H	 1.508020000	 0.154560000	 -0.000170000
C	 -0.715826208	 -1.173780000	 1.987838906
C	 -2.079236208	 -1.174830000	 -0.373101094
S	 -1.537796208	 0.000000000	 0.887848906
H	 0.102063792	 -1.670010000	 1.470308906
H	 -0.318086208	 -0.610370000	 2.827978906
H	 -1.428086208	 -1.907450000	 2.358648906
H	 -1.222016208	 -1.671140000	 -0.822411094
H	 -2.756216208	 -1.908400000	 0.058948906
H	 -2.608226208	 -0.612130000	 -1.137951094
