12
0  1  0  1  0  1   3   9 -4.38579 -3.89437 -4.09076 -4.58218 -4.19668 -4.41926 -0.65098 -0.65300 -0.65232 -3.86207 -8.19425 11.28044 -2.73726 -4.21100
O	 0.819380000	 -0.512540000	 0.000200000
H	 0.000000000	 0.000000000	 0.000000000
H	 1.508020000	 0.154560000	 -0.000170000
C	 -2.628559033	 -1.173780000	 0.056958448
C	 -1.265629033	 -1.174830000	 -2.304261552
S	 -2.086929033	 0.000000000	 -1.204891552
H	 -1.771429033	 -1.670010000	 0.506508448
H	 -3.157279033	 -0.610370000	 0.821478448
H	 -3.305829033	 -1.907450000	 -0.374481552
H	 -0.447909033	 -1.671140000	 -1.786541552
H	 -1.978289033	 -1.908400000	 -2.674521552
H	 -0.867749033	 -0.612130000	 -3.144801552
