12
0  1  0  1  0  1   3   9 21.39420 23.27867 22.18155 20.29710 21.97727 20.96145 33.64533 33.62536 33.51998 22.13359 -39.47483 89.19653 -13.23687 -14.35124
O	 0.819380000	 -0.512540000	 0.000200000
H	 0.000000000	 0.000000000	 0.000000000
H	 1.508020000	 0.154560000	 -0.000170000
C	 -0.874099674	 -1.860021897	 1.363610000
C	 -0.873809674	 -1.861071897	 -1.362730000
S	 -1.601159674	 -0.924431897	 -0.000000000
H	 0.211530326	 -1.806231897	 1.324360000
H	 -1.221289674	 -1.409911897	 2.290060000
H	 -1.202029674	 -2.896521897	 1.328600000
H	 0.211810326	 -1.807371897	 -1.323240000
H	 -1.201849674	 -2.897521897	 -1.327060000
H	 -1.220719674	 -1.411611897	 -2.289610000
