12
0  1  0  1  0  1   3   9 -1.59788 -1.38215 -1.33841 -1.55414 -1.41516 -1.49671  0.46539  0.46476  0.46193 -1.37123 -1.66543  3.02323 -0.60202 -2.12701
O	 2.561380000	 -2.070640000	 0.000200000
H	 2.108040000	 -1.217080000	 0.000000000
H	 3.491310000	 -1.837240000	 -0.000170000
C	 -0.557744750	 -0.758315137	 1.363610000
C	 -0.558024750	 -0.759365137	 -1.362730000
S	 -0.719604750	 0.415464863	 0.000000000
H	 0.409325250	 -1.254545137	 1.324360000
H	 -0.633364750	 -0.194905137	 2.290060000
H	 -1.359994750	 -1.491985137	 1.328600000
H	 0.409005250	 -1.255675137	 -1.323240000
H	 -1.360334750	 -1.492935137	 -1.327060000
H	 -0.633714750	 -0.196665137	 -2.289610000
