12
0  1  0  1  0  1   3   9 18.92110 20.57015 19.67635 18.02730 19.48747 18.62255 30.97637 30.95854 30.90933 20.25303 -30.68632 76.54072 -12.05434 -13.54703
O	 2.561380000	 -2.070640000	 0.000200000
H	 2.108040000	 -1.217080000	 0.000000000
H	 3.491310000	 -1.837240000	 -0.000170000
C	 0.470489704	 -1.351967814	 1.363610000
C	 0.470209704	 -1.353017814	 -1.362730000
S	 0.308629704	 -0.178187814	 0.000000000
H	 1.437559704	 -1.848197814	 1.324360000
H	 0.394869704	 -0.788557814	 2.290060000
H	 -0.331760296	 -2.085637814	 1.328600000
H	 1.437239704	 -1.849327814	 -1.323240000
H	 -0.332100296	 -2.086587814	 -1.327060000
H	 0.394519704	 -0.790317814	 -2.289610000
