12
0  1  0  1  0  1   3   9  0.73413  1.72724  1.18584  0.19273  1.04073  0.54175  7.64295  7.63811  7.61743  1.59010 -18.34928 35.39671 -7.51936 -7.93797
O	 0.819380000	 -0.512540000	 0.000200000
H	 0.000000000	 0.000000000	 0.000000000
H	 1.508020000	 0.154560000	 -0.000170000
C	 -2.299043923	 -1.173780000	 0.247204482
C	 -0.936113923	 -1.174830000	 -2.114015518
S	 -1.757413923	 0.000000000	 -1.014645518
H	 -1.441913923	 -1.670010000	 0.696754482
H	 -2.827763923	 -0.610370000	 1.011724482
H	 -2.976313923	 -1.907450000	 -0.184235518
H	 -0.118393923	 -1.671140000	 -1.596295518
H	 -1.648773923	 -1.908400000	 -2.484275518
H	 -0.538233923	 -0.612130000	 -2.954555518
