12
0  1  0  1  0  1   3   9 -4.68532 -4.04917 -4.41594 -5.05209 -4.53355 -4.83251  0.06587  0.06389  0.06583 -3.87818 -10.97508 17.06203 -4.64291 -5.32222
O	 3.253540000	 -0.512540000	 0.000200000
H	 2.434160000	 -0.000000000	 0.000000000
H	 3.942180000	 0.154560000	 -0.000170000
C	 0.399470528	 -1.173780000	 1.363610000
C	 0.399190528	 -1.174830000	 -1.362730000
S	 0.237610528	 0.000000000	 0.000000000
H	 1.366540528	 -1.670010000	 1.324360000
H	 0.323850528	 -0.610370000	 2.290060000
H	 -0.402779472	 -1.907450000	 1.328600000
H	 1.366220528	 -1.671140000	 -1.323240000
H	 -0.403119472	 -1.908400000	 -1.327060000
H	 0.323500528	 -0.612130000	 -2.289610000
