12
0  1  0  1  0  1   3   9 -2.24913 -1.80572 -1.94493 -2.38834 -2.04126 -2.24148  1.38369  1.37363  1.37467 -1.65212 -5.77869 10.07981 -2.05029 -3.90295
O	 2.817750000	 -0.512540000	 -1.626600000
H	 2.108040000	 -0.000000000	 -1.217080000
H	 3.413940000	 0.154560000	 -1.971230000
C	 0.007339614	 -1.173780000	 1.452822573
C	 0.007059614	 -1.174830000	 -1.273517427
S	 -0.154520386	 0.000000000	 0.089212573
H	 0.974409614	 -1.670010000	 1.413572573
H	 -0.068280386	 -0.610370000	 2.379272573
H	 -0.794910386	 -1.907450000	 1.417812573
H	 0.974089614	 -1.671140000	 -1.234027427
H	 -0.795250386	 -1.908400000	 -1.237847427
H	 -0.068630386	 -0.612130000	 -2.200397427
