12
0  1  0  1  0  1   3   9 -5.13168 -4.80081 -4.95607 -5.28694 -5.04143 -5.18204 -2.51687 -2.51971 -2.51658 -4.75916 -5.59146  5.51454 -1.77909 -2.90316
O	 3.253540000	 -0.512540000	 0.000200000
H	 2.434160000	 -0.000000000	 0.000000000
H	 3.942180000	 0.154560000	 -0.000170000
C	 0.033378950	 -1.173780000	 1.363610000
C	 0.033098950	 -1.174830000	 -1.362730000
S	 -0.128481050	 0.000000000	 0.000000000
H	 1.000448950	 -1.670010000	 1.324360000
H	 -0.042241050	 -0.610370000	 2.290060000
H	 -0.768871050	 -1.907450000	 1.328600000
H	 1.000128950	 -1.671140000	 -1.323240000
H	 -0.769211050	 -1.908400000	 -1.327060000
H	 -0.042591050	 -0.612130000	 -2.289610000
