12
0  1  0  1  0  1   3   9  8.59887  9.93670  8.87340  7.53557  8.71103  8.01072 17.37194 17.37009 17.32093  8.58655 -25.44026 60.92001 -16.53284 -10.36036
O	 0.819380000	 -0.512540000	 0.000200000
H	 0.000000000	 0.000000000	 0.000000000
H	 1.508020000	 0.154560000	 -0.000170000
C	 -1.930567248	 -0.240748605	 1.363610000
C	 -1.931327248	 -0.241518605	 -1.362730000
S	 -1.483847248	 0.856701395	 -0.000000000
H	 -1.341167248	 -1.154038605	 1.324360000
H	 -1.714347248	 0.284981395	 2.290060000
H	 -2.992167248	 -0.474998605	 1.328600000
H	 -1.342017248	 -1.154848605	 -1.323240000
H	 -2.992937248	 -0.475658605	 -1.327060000
H	 -1.715537248	 0.283641395	 -2.289610000
