12
0  1  0  1  0  1   3   9 -0.65850  0.34771 -0.31237 -1.31858 -0.45446 -0.96255  6.35510  6.35292  6.33273  0.30828 -18.13747 35.46392 -8.98321 -8.03496
O	 3.253540000	 -0.512540000	 0.000200000
H	 2.434160000	 -0.000000000	 0.000000000
H	 3.942180000	 0.154560000	 -0.000170000
C	 0.643531581	 -1.173780000	 1.363610000
C	 0.643251581	 -1.174830000	 -1.362730000
S	 0.481671581	 0.000000000	 0.000000000
H	 1.610601581	 -1.670010000	 1.324360000
H	 0.567911581	 -0.610370000	 2.290060000
H	 -0.158718419	 -1.907450000	 1.328600000
H	 1.610281581	 -1.671140000	 -1.323240000
H	 -0.159058419	 -1.908400000	 -1.327060000
H	 0.567561581	 -0.612130000	 -2.289610000
