12
0  1  0  1  0  1   3   9 -1.18048 -0.61647 -0.82698 -1.39099 -0.93504 -1.19819  3.33861  3.32837  3.32943 -0.39287 -7.80760 15.27978 -2.96190 -4.90314
O	 2.817750000	 -0.512540000	 -1.626600000
H	 2.108040000	 -0.000000000	 -1.217080000
H	 3.413940000	 0.154560000	 -1.971230000
C	 0.126421740	 -1.173780000	 1.384070332
C	 0.126141740	 -1.174830000	 -1.342269668
S	 -0.035438260	 0.000000000	 0.020460332
H	 1.093491740	 -1.670010000	 1.344820332
H	 0.050801740	 -0.610370000	 2.310520332
H	 -0.675828260	 -1.907450000	 1.349060332
H	 1.093171740	 -1.671140000	 -1.302779668
H	 -0.676168260	 -1.908400000	 -1.306599668
H	 0.050451740	 -0.612130000	 -2.269149668
