12
0  1  0  1  0  1   3   9 13.65290 15.26623 14.24581 12.63250 14.06927 13.20320 23.98137 23.97062 23.88663 13.87879 -32.58265 73.69698 -15.00780 -12.22774
O	 0.819380000	 -0.512540000	 0.000200000
H	 0.000000000	 0.000000000	 0.000000000
H	 1.508020000	 0.154560000	 -0.000170000
C	 -2.079367183	 -1.173780000	 0.374035172
C	 -0.716437183	 -1.174830000	 -1.987184828
S	 -1.537737183	 0.000000000	 -0.887814828
H	 -1.222237183	 -1.670010000	 0.823585172
H	 -2.608087183	 -0.610370000	 1.138555172
H	 -2.756637183	 -1.907450000	 -0.057404828
H	 0.101282817	 -1.671140000	 -1.469464828
H	 -1.429097183	 -1.908400000	 -2.357444828
H	 -0.318557183	 -0.612130000	 -2.827724828
