12
0  1  0  1  0  1   3   9 -1.58664 -1.30488 -1.26891 -1.55067 -1.35829 -1.47248  1.01518  1.01131  1.00426 -1.26503 -2.39615  4.69595 -0.87546 -2.68937
O	 2.561380000	 -2.070640000	 0.000200000
H	 2.108040000	 -1.217080000	 0.000000000
H	 3.491310000	 -1.837240000	 -0.000170000
C	 -0.429215444	 -0.832521722	 1.363610000
C	 -0.429495444	 -0.833571722	 -1.362730000
S	 -0.591075444	 0.341258278	 0.000000000
H	 0.537854556	 -1.328751722	 1.324360000
H	 -0.504835444	 -0.269111722	 2.290060000
H	 -1.231465444	 -1.566191722	 1.328600000
H	 0.537534556	 -1.329881722	 -1.323240000
H	 -1.231805444	 -1.567141722	 -1.327060000
H	 -0.505185444	 -0.270871722	 -2.289610000
