12
0  1  0  1  0  1   3   9 -1.37395 -1.00625 -0.99055 -1.35825 -1.09292 -1.25186  1.90054  1.89318  1.88004 -0.92317 -3.47262  7.23125 -1.27989 -3.40191
O	 2.561380000	 -2.070640000	 0.000200000
H	 2.108040000	 -1.217080000	 0.000000000
H	 3.491310000	 -1.837240000	 -0.000170000
C	 -0.300686137	 -0.906728306	 1.363610000
C	 -0.300966137	 -0.907778306	 -1.362730000
S	 -0.462546137	 0.267051694	 0.000000000
H	 0.666383863	 -1.402958306	 1.324360000
H	 -0.376306137	 -0.343318306	 2.290060000
H	 -1.102936137	 -1.640398306	 1.328600000
H	 0.666063863	 -1.404088306	 -1.323240000
H	 -1.103276137	 -1.641348306	 -1.327060000
H	 -0.376656137	 -0.345078306	 -2.289610000
