12
0  1  0  1  0  1   9   3 -5.05368 -4.90737 -5.01179 -5.15810 -5.02565 -5.10699 -4.05955 -4.05773 -4.06904 -5.02601 -5.37095  2.97510 -1.10769 -1.52247
O	 1.621370000	 -0.936100000	 0.000000000
H	 2.507010000	 -0.571640000	 -0.057800000
H	 1.748870000	 -1.884970000	 -0.062510000
C	 -3.452469757	 0.192265240	 0.570380000
C	 -2.172999757	 0.190635240	 1.081670000
N	 -1.348019757	 0.194015240	 -0.010770000
C	 -2.141089757	 0.197475240	 -1.114680000
N	 -3.427669757	 0.196535240	 -0.801070000
H	 -0.335939757	 0.193955240	 0.000000000
H	 -4.379459757	 0.190595240	 1.116690000
H	 -1.793329757	 0.187495240	 2.086940000
H	 -1.737839757	 0.200565240	 -2.112400000
