12
0  1  0  1  0  1   9   3 -5.55877 -5.18465 -5.47259 -5.84671 -5.50173 -5.71230 -3.31516 -3.32375 -3.35012 -5.21912 -11.84427 14.73347 -4.57384 -3.53448
O	 1.872200000	 0.000000000	 0.000000000
H	 2.456950000	 0.758450000	 -0.057800000
H	 2.457050000	 -0.758000000	 -0.062510000
C	 -3.013794897	 -0.001690000	 0.570380000
C	 -1.734324897	 -0.003320000	 1.081670000
N	 -0.909344897	 0.000060000	 -0.010770000
C	 -1.702414897	 0.003520000	 -1.114680000
N	 -2.988994897	 0.002580000	 -0.801070000
H	 0.102735103	 0.000000000	 0.000000000
H	 -3.940784897	 -0.003360000	 1.116690000
H	 -1.354654897	 -0.006460000	 2.086940000
H	 -1.299164897	 0.006610000	 -2.112400000
