12
0  1  0  1  0  1   9   3 -5.04137 -4.76289 -4.94079 -5.21927 -4.96873 -5.12345 -3.21142 -3.21504 -3.23846 -4.76528 -7.95991  8.72506 -2.80456 -2.72587
O	 0.000000000	 0.000000000	 0.000000000
H	 0.584750000	 0.758450000	 -0.057800000
H	 0.584850000	 -0.758000000	 -0.062510000
C	 -4.343145793	 -2.509470381	 0.570380000
C	 -3.234275793	 -1.871150381	 1.081670000
N	 -2.521515793	 -1.455730381	 -0.010770000
C	 -3.210065793	 -1.849270381	 -1.114680000
N	 -4.323805793	 -2.493370381	 -0.801070000
H	 -1.644995793	 -0.949740381	 0.000000000
H	 -5.145105793	 -2.974410381	 1.116690000
H	 -2.903905793	 -1.684030381	 2.086940000
H	 -2.862385793	 -1.644970381	 -2.112400000
