12
0  1  0  1  0  1   9   3  3.98584  4.78383  4.01290  3.21491  3.96410  3.52211  8.45908  8.43849  8.41747  3.85320 -26.98783 53.72248 -15.31439 -7.56706
O	 0.000000000	 0.000000000	 0.000000000
H	 0.584750000	 0.758450000	 -0.057800000
H	 0.584850000	 -0.758000000	 -0.062510000
C	 -4.208527021	 -0.001690000	 -1.771172512
C	 -3.356117021	 -0.003320000	 -0.688652513
N	 -2.095437021	 0.000060000	 -1.222242513
C	 -2.230307021	 0.003520000	 -2.574792513
N	 -3.501317021	 0.002580000	 -2.946482513
H	 -1.224337021	 0.000000000	 -0.706872513
H	 -5.284477021	 -0.003360000	 -1.761552513
H	 -3.529947021	 -0.006460000	 0.371777488
H	 -1.382217021	 0.006610000	 -3.237212513
