12
0  1  0  1  0  1   9   3 -2.54528 -1.99077 -2.49260 -3.04711 -2.53146 -2.83632  0.69597  0.68227  0.66628 -2.15854 -17.70486 29.41240 -8.59965 -5.26643
O	 1.872200000	 0.000000000	 0.000000000
H	 2.456950000	 0.758450000	 -0.057800000
H	 2.457050000	 -0.758000000	 -0.062510000
C	 -2.817187686	 -0.001690000	 0.570380000
C	 -1.537717686	 -0.003320000	 1.081670000
N	 -0.712737686	 0.000060000	 -0.010770000
C	 -1.505807686	 0.003520000	 -1.114680000
N	 -2.792387686	 0.002580000	 -0.801070000
H	 0.299342314	 0.000000000	 0.000000000
H	 -3.744177686	 -0.003360000	 1.116690000
H	 -1.158047686	 -0.006460000	 2.086940000
H	 -1.102557686	 0.006610000	 -2.112400000
