12
0  1  0  1  0  1   9   3 -5.04072 -4.76223 -4.94013 -5.21862 -4.96807 -5.12280 -3.21052 -3.21414 -3.23756 -4.76467 -7.95962  8.72523 -2.80443 -2.72585
O	 0.000000000	 0.000000000	 0.000000000
H	 0.584750000	 0.758450000	 -0.057800000
H	 0.584850000	 -0.758000000	 -0.062510000
C	 -4.344866599	 2.506558167	 0.570380000
C	 -3.237626599	 1.865408167	 1.081670000
N	 -2.521486599	 1.455848167	 -0.010770000
C	 -3.206576599	 1.855378167	 -1.114680000
N	 -4.321256599	 2.497858167	 -0.801070000
H	 -1.645026599	 0.949758167	 0.000000000
H	 -5.148496599	 2.968608167	 1.116690000
H	 -2.910396599	 1.672858167	 2.086940000
H	 -2.855806599	 1.656428167	 -2.112400000
