12
0  1  0  1  0  1   9   3 -5.72086 -5.48990 -5.63592 -5.86688 -5.65867 -5.78690 -4.20547 -4.20771 -4.22634 -5.61477 -7.52108  6.22804 -1.99519 -2.32655
O	 1.621370000	 0.000000000	 0.936100000
H	 2.156680000	 0.758450000	 1.178420000
H	 2.159120000	 -0.758000000	 1.174390000
C	 -3.263588259	 -0.001690000	 0.485475730
C	 -1.984118259	 -0.003320000	 0.996765730
N	 -1.159138259	 0.000060000	 -0.095674270
C	 -1.952208259	 0.003520000	 -1.199584270
N	 -3.238788259	 0.002580000	 -0.885974270
H	 -0.147058259	 0.000000000	 -0.084904270
H	 -4.190578259	 -0.003360000	 1.031785730
H	 -1.604448259	 -0.006460000	 2.002035730
H	 -1.548958259	 0.006610000	 -2.197304270
