12
0  1  0  1  0  1   9   3 -5.77585 -5.60913 -5.72160 -5.88832 -5.73833 -5.83196 -4.76315 -4.76574 -4.78214 -5.71592 -6.20038  3.58290 -1.44368 -1.65477
O	 1.872200000	 0.000000000	 0.000000000
H	 2.456950000	 0.758450000	 -0.057800000
H	 2.457050000	 -0.758000000	 -0.062510000
C	 -3.407009319	 -0.001690000	 0.570380000
C	 -2.127539319	 -0.003320000	 1.081670000
N	 -1.302559319	 0.000060000	 -0.010770000
C	 -2.095629319	 0.003520000	 -1.114680000
N	 -3.382209319	 0.002580000	 -0.801070000
H	 -0.290479319	 0.000000000	 0.000000000
H	 -4.333999319	 -0.003360000	 1.116690000
H	 -1.747869319	 -0.006460000	 2.086940000
H	 -1.692379319	 0.006610000	 -2.112400000
