12
0  1  0  1  0  1   9   3 -5.73784 -5.38612 -5.63523 -5.98696 -5.66674 -5.86377 -3.53706 -3.54877 -3.57698 -5.48256 -11.41986 13.39995 -4.15231 -3.31034
O	 0.000000000	 0.000000000	 0.000000000
H	 0.584750000	 0.758450000	 -0.057800000
H	 0.584850000	 -0.758000000	 -0.062510000
C	 -4.558337599	 -0.001690000	 -1.973136088
C	 -3.705927599	 -0.003320000	 -0.890616088
N	 -2.445247599	 0.000060000	 -1.424206088
C	 -2.580117599	 0.003520000	 -2.776756087
N	 -3.851127599	 0.002580000	 -3.148446087
H	 -1.574147599	 0.000000000	 -0.908836088
H	 -5.634287599	 -0.003360000	 -1.963516088
H	 -3.879757599	 -0.006460000	 0.169813912
H	 -1.732027599	 0.006610000	 -3.439176087
