12
0  1  0  1  0  1   9   3 -4.86111 -4.51407 -4.77314 -5.12017 -4.79615 -4.99531 -2.60556 -2.60673 -2.63480 -4.55271 -10.53566 12.84314 -3.54956 -3.31062
O	 1.621370000	 -0.936100000	 0.000000000
H	 2.507010000	 -0.571640000	 -0.057800000
H	 1.748870000	 -1.884970000	 -0.062510000
C	 -3.096595256	 -0.013199349	 0.570380000
C	 -1.817125256	 -0.014829349	 1.081670000
N	 -0.992145256	 -0.011449349	 -0.010770000
C	 -1.785215256	 -0.007989349	 -1.114680000
N	 -3.071795256	 -0.008929349	 -0.801070000
H	 0.019934744	 -0.011509349	 0.000000000
H	 -4.023585256	 -0.014869349	 1.116690000
H	 -1.437455256	 -0.017969349	 2.086940000
H	 -1.381965256	 -0.004899349	 -2.112400000
