12
0  1  0  1  0  1   9   3  5.98012  6.79179  5.98045  5.16878  5.94351  5.48354 10.80809 10.79872 10.77009  6.11349 -25.94299 53.14211 -13.47552 -7.61011
O	 1.621370000	 -0.936100000	 0.000000000
H	 2.507010000	 -0.571640000	 -0.057800000
H	 1.748870000	 -1.884970000	 -0.062510000
C	 -2.740720755	 -0.218663939	 0.570380000
C	 -1.461250755	 -0.220293939	 1.081670000
N	 -0.636270755	 -0.216913939	 -0.010770000
C	 -1.429340755	 -0.213453939	 -1.114680000
N	 -2.715920755	 -0.214393939	 -0.801070000
H	 0.375809245	 -0.216973939	 0.000000000
H	 -3.667710755	 -0.220333939	 1.116690000
H	 -1.081580755	 -0.223433939	 2.086940000
H	 -1.026090755	 -0.210363939	 -2.112400000
