12
0  1  0  1  0  1   9   3 -6.16052 -5.90734 -6.07886 -6.33204 -6.10053 -6.24572 -4.63547 -4.64060 -4.66748 -5.96992 -8.34845  7.30152 -2.52004 -2.40295
O	 1.872200000	 0.000000000	 0.000000000
H	 2.456950000	 0.758450000	 -0.057800000
H	 2.457050000	 -0.758000000	 -0.062510000
C	 -3.210402108	 -0.001690000	 0.570380000
C	 -1.930932108	 -0.003320000	 1.081670000
N	 -1.105952108	 0.000060000	 -0.010770000
C	 -1.899022108	 0.003520000	 -1.114680000
N	 -3.185602108	 0.002580000	 -0.801070000
H	 -0.093872108	 0.000000000	 0.000000000
H	 -4.137392108	 -0.003360000	 1.116690000
H	 -1.551262108	 -0.006460000	 2.086940000
H	 -1.495772108	 0.006610000	 -2.112400000
