12
0  1  0  1  0  1   9   3 -2.34075 -1.80926 -2.22809 -2.75959 -2.26645 -2.55798  1.05814  1.04818  1.03293 -1.91315 -16.30379 26.23941 -6.72304 -5.12573
O	 1.621370000	 0.000000000	 -0.936100000
H	 2.098880000	 0.758450000	 -1.278530000
H	 2.096610000	 -0.758000000	 -1.282660000
C	 -2.916777216	 -0.001690000	 0.455052480
C	 -1.637307216	 -0.003320000	 0.966342480
N	 -0.812327216	 0.000060000	 -0.126097520
C	 -1.605397216	 0.003520000	 -1.230007520
N	 -2.891977216	 0.002580000	 -0.916397520
H	 0.199752784	 0.000000000	 -0.115327520
H	 -3.843767216	 -0.003360000	 1.001362480
H	 -1.257637216	 -0.006460000	 1.971612480
H	 -1.202147216	 0.006610000	 -2.227727520
