12
0  1  0  1  0  1   9   3 -1.80567 -1.29890 -1.73417 -2.24093 -1.77173 -2.04784  1.43605  1.42950  1.41798 -1.30357 -14.52623 25.51202 -7.31324 -4.97612
O	 0.000000000	 0.000000000	 0.000000000
H	 0.584750000	 0.758450000	 -0.057800000
H	 0.584850000	 -0.758000000	 -0.062510000
C	 -4.083409615	 -2.359511374	 0.570380000
C	 -2.974539615	 -1.721191374	 1.081670000
N	 -2.261779615	 -1.305771374	 -0.010770000
C	 -2.950329615	 -1.699311374	 -1.114680000
N	 -4.064069615	 -2.343411374	 -0.801070000
H	 -1.385259615	 -0.799781374	 0.000000000
H	 -4.885369615	 -2.824451374	 1.116690000
H	 -2.644169615	 -1.534071374	 2.086940000
H	 -2.602649615	 -1.495011374	 -2.112400000
