12
0  1  0  1  0  1   9   3 -5.76119 -5.52962 -5.65749 -5.88905 -5.68092 -5.80855 -4.21184 -4.21387 -4.23117 -5.61223 -7.49249  6.12636 -1.93068 -2.31543
O	 1.621370000	 0.000000000	 -0.936100000
H	 2.098880000	 0.758450000	 -1.278530000
H	 2.096610000	 -0.758000000	 -1.282660000
C	 -3.272181520	 -0.001690000	 0.660245600
C	 -1.992711520	 -0.003320000	 1.171535600
N	 -1.167731520	 0.000060000	 0.079095600
C	 -1.960801520	 0.003520000	 -1.024814400
N	 -3.247381520	 0.002580000	 -0.711204400
H	 -0.155651520	 0.000000000	 0.089865600
H	 -4.199171520	 -0.003360000	 1.206555600
H	 -1.613041520	 -0.006460000	 2.176805600
H	 -1.557551520	 0.006610000	 -2.022534400
