12
0  1  0  1  0  1   9   3 -6.08607 -5.79566 -5.97710 -6.26751 -6.00283 -6.16819 -4.32011 -4.32827 -4.35753 -5.85329 -9.40530  9.35523 -3.07589 -2.72732
O	 0.000000000	 0.000000000	 0.000000000
H	 0.584750000	 0.758450000	 -0.057800000
H	 0.584850000	 -0.758000000	 -0.062510000
C	 -4.065937389	 -0.001690000	 3.006087817
C	 -2.702237389	 -0.003320000	 2.809137817
N	 -2.533997389	 0.000060000	 1.450567817
C	 -3.772777389	 0.003520000	 0.891087817
N	 -4.730177389	 0.002580000	 1.805977817
H	 -1.652127389	 0.000000000	 0.953857817
H	 -4.595577389	 -0.003360000	 3.942697817
H	 -1.870797389	 -0.006460000	 3.489897817
H	 -3.922407389	 0.006610000	 -0.174582183
