12
0  1  0  1  0  1   9   3 -5.41294 -5.18527 -5.34076 -5.56844 -5.35871 -5.48937 -3.90360 -3.90264 -3.92495 -5.27029 -7.30857  6.20746 -1.93806 -2.23112
O	 1.621370000	 -0.936100000	 0.000000000
H	 2.507010000	 -0.571640000	 -0.057800000
H	 1.748870000	 -1.884970000	 -0.062510000
C	 -3.274532506	 0.089532945	 0.570380000
C	 -1.995062507	 0.087902945	 1.081670000
N	 -1.170082507	 0.091282945	 -0.010770000
C	 -1.963152507	 0.094742945	 -1.114680000
N	 -3.249732507	 0.093802945	 -0.801070000
H	 -0.158002507	 0.091222945	 0.000000000
H	 -4.201522506	 0.087862945	 1.116690000
H	 -1.615392507	 0.084762945	 2.086940000
H	 -1.559902507	 0.097832945	 -2.112400000
