12
0  1  0  1  0  1   9   3 -5.90016 -5.70933 -5.81876 -6.00959 -5.83781 -5.94592 -4.71865 -4.72286 -4.74373 -5.80671 -6.79175  4.56482 -1.72229 -1.85750
O	 0.000000000	 0.000000000	 0.000000000
H	 0.584750000	 0.758450000	 -0.057800000
H	 0.584850000	 -0.758000000	 -0.062510000
C	 -4.239845535	 -0.001690000	 3.106493903
C	 -2.876145535	 -0.003320000	 2.909543903
N	 -2.707905535	 0.000060000	 1.550973903
C	 -3.946685535	 0.003520000	 0.991493903
N	 -4.904085535	 0.002580000	 1.906383903
H	 -1.826035535	 0.000000000	 1.054263903
H	 -4.769485535	 -0.003360000	 4.043103903
H	 -2.044705535	 -0.006460000	 3.590303903
H	 -4.096315535	 0.006610000	 -0.074176097
