12
0  1  0  1  0  1   9   3  5.98007  6.79170  5.98032  5.16869  5.94338  5.48343 10.80858 10.79922 10.77060  6.11401 -25.94342 53.14175 -13.47420 -7.61012
O	 1.621370000	 0.936100000	 0.000000000
H	 1.748560000	 1.885310000	 -0.057800000
H	 2.506870000	 0.572080000	 -0.062510000
C	 -2.740743454	 0.215270833	 0.570380000
C	 -1.461273454	 0.213640833	 1.081670000
N	 -0.636293454	 0.217020833	 -0.010770000
C	 -1.429363454	 0.220480833	 -1.114680000
N	 -2.715943454	 0.219540833	 -0.801070000
H	 0.375786546	 0.216960833	 0.000000000
H	 -3.667733454	 0.213600833	 1.116690000
H	 -1.081603454	 0.210500833	 2.086940000
H	 -1.026113454	 0.223570833	 -2.112400000
