12
0  1  0  1  0  1   9   3 -4.86129 -4.51422 -4.77325 -5.12032 -4.79624 -4.99544 -2.60548 -2.60665 -2.63471 -4.55264 -10.53572 12.84284 -3.54916 -3.31061
O	 1.621370000	 0.936100000	 0.000000000
H	 1.748560000	 1.885310000	 -0.057800000
H	 2.506870000	 0.572080000	 -0.062510000
C	 -3.096624441	 0.009802500	 0.570380000
C	 -1.817154441	 0.008172500	 1.081670000
N	 -0.992174441	 0.011552500	 -0.010770000
C	 -1.785244441	 0.015012500	 -1.114680000
N	 -3.071824441	 0.014072500	 -0.801070000
H	 0.019905559	 0.011492500	 0.000000000
H	 -4.023614441	 0.008132500	 1.116690000
H	 -1.437484441	 0.005032500	 2.086940000
H	 -1.381994441	 0.018102500	 -2.112400000
