12
0  1  0  1  0  1   9   3 -6.04758 -5.73900 -5.95934 -6.26792 -5.98437 -6.16038 -4.19280 -4.19948 -4.22813 -5.78077 -9.87674 10.38563 -3.37966 -2.91000
O	 1.872200000	 0.000000000	 0.000000000
H	 2.456950000	 0.758450000	 -0.057800000
H	 2.457050000	 -0.758000000	 -0.062510000
C	 -3.112098503	 -0.001690000	 0.570380000
C	 -1.832628503	 -0.003320000	 1.081670000
N	 -1.007648503	 0.000060000	 -0.010770000
C	 -1.800718503	 0.003520000	 -1.114680000
N	 -3.087298503	 0.002580000	 -0.801070000
H	 0.004431497	 0.000000000	 0.000000000
H	 -4.039088503	 -0.003360000	 1.116690000
H	 -1.452958503	 -0.006460000	 2.086940000
H	 -1.397468503	 0.006610000	 -2.112400000
