12
0  1  0  1  0  1   9   3 -4.59136 -4.25154 -4.48940 -4.82922 -4.52059 -4.70844 -2.36884 -2.37321 -2.39555 -4.22270 -9.59001 12.51267 -3.82410 -3.32126
O	 0.000000000	 0.000000000	 0.000000000
H	 0.584750000	 0.758450000	 -0.057800000
H	 0.584850000	 -0.758000000	 -0.062510000
C	 -4.258286252	 2.456570895	 0.570380000
C	 -3.151046252	 1.815420895	 1.081670000
N	 -2.434906252	 1.405860895	 -0.010770000
C	 -3.119996252	 1.805390895	 -1.114680000
N	 -4.234676252	 2.447870895	 -0.801070000
H	 -1.558446252	 0.899770895	 0.000000000
H	 -5.061916252	 2.918620895	 1.116690000
H	 -2.823816252	 1.622870895	 2.086940000
H	 -2.769226252	 1.606440895	 -2.112400000
