12
0  1  0  1  0  1   9   3  6.06483  6.84804  6.06466  5.28145  6.01986  5.58732 10.73834 10.72691 10.71354  6.22831 -23.02983 51.35122 -14.50492 -7.58816
O	 0.000000000	 0.000000000	 0.000000000
H	 0.584750000	 0.758450000	 -0.057800000
H	 0.584850000	 -0.758000000	 -0.062510000
C	 -3.911964862	 2.256621807	 0.570380000
C	 -2.804724862	 1.615471807	 1.081670000
N	 -2.088584862	 1.205911807	 -0.010770000
C	 -2.773674862	 1.605441807	 -1.114680000
N	 -3.888354862	 2.247921807	 -0.801070000
H	 -1.212124862	 0.699821807	 0.000000000
H	 -4.715594862	 2.718671807	 1.116690000
H	 -2.477494862	 1.422921807	 2.086940000
H	 -2.422904862	 1.406491807	 -2.112400000
