12
0  1  0  1  0  1   9   3 -5.22264 -4.87091 -5.09676 -5.44850 -5.12667 -5.32174 -2.91035 -2.91515 -2.93652 -4.91338 -10.71762 12.75387 -3.52597 -3.42367
O	 1.621370000	 0.000000000	 -0.936100000
H	 2.098880000	 0.758450000	 -1.278530000
H	 2.096610000	 -0.758000000	 -1.282660000
C	 -3.094479368	 -0.001690000	 0.557649040
C	 -1.815009368	 -0.003320000	 1.068939040
N	 -0.990029368	 0.000060000	 -0.023500960
C	 -1.783099368	 0.003520000	 -1.127410960
N	 -3.069679368	 0.002580000	 -0.813800960
H	 0.022050632	 0.000000000	 -0.012730960
H	 -4.021469368	 -0.003360000	 1.103959040
H	 -1.435339368	 -0.006460000	 2.074209040
H	 -1.379849368	 0.006610000	 -2.125130960
