12
0  1  0  1  0  1   9   3 -3.31139 -2.78934 -3.23000 -3.75205 -3.27228 -3.55661 -0.14921 -0.16677 -0.18328 -2.99486 -17.18483 26.98478 -7.83503 -4.95978
O	 0.000000000	 0.000000000	 0.000000000
H	 0.584750000	 0.758450000	 -0.057800000
H	 0.584850000	 -0.758000000	 -0.062510000
C	 -4.383432310	 -0.001690000	 -1.872154300
C	 -3.531022310	 -0.003320000	 -0.789634300
N	 -2.270342310	 0.000060000	 -1.323224300
C	 -2.405212310	 0.003520000	 -2.675774300
N	 -3.676222310	 0.002580000	 -3.047464300
H	 -1.399242310	 0.000000000	 -0.807854300
H	 -5.459382310	 -0.003360000	 -1.862534300
H	 -3.704852310	 -0.006460000	 0.270795700
H	 -1.557122310	 0.006610000	 -3.338194300
