12
0  1  0  1  0  1   9   3 -3.24309 -2.71793 -3.15361 -3.67876 -3.19446 -3.48162 -0.14074 -0.15709 -0.17409 -2.86658 -16.94393 26.92883 -7.87722 -4.97426
O	 0.000000000	 0.000000000	 0.000000000
H	 0.584750000	 0.758450000	 -0.057800000
H	 0.584850000	 -0.758000000	 -0.062510000
C	 -3.805075170	 -0.001690000	 2.855478688
C	 -2.441375170	 -0.003320000	 2.658528688
N	 -2.273135170	 0.000060000	 1.299958688
C	 -3.511915170	 0.003520000	 0.740478688
N	 -4.469315170	 0.002580000	 1.655368688
H	 -1.391265170	 0.000000000	 0.803248688
H	 -4.334715170	 -0.003360000	 3.792088688
H	 -1.609935170	 -0.006460000	 3.339288688
H	 -3.661545170	 0.006610000	 -0.325191312
