12
0  1  0  1  0  1   9   3  5.85522  6.67938  5.91332  5.08916  5.86534  5.40710 10.78554 10.76901 10.74644  5.97815 -26.12667 53.26611 -13.35843 -7.80286
O	 1.621370000	 0.000000000	 -0.936100000
H	 2.098880000	 0.758450000	 -1.278530000
H	 2.096610000	 -0.758000000	 -1.282660000
C	 -2.739075064	 -0.001690000	 0.352455920
C	 -1.459605064	 -0.003320000	 0.863745920
N	 -0.634625064	 0.000060000	 -0.228694080
C	 -1.427695064	 0.003520000	 -1.332604080
N	 -2.714275064	 0.002580000	 -1.018994080
H	 0.377454936	 0.000000000	 -0.217924080
H	 -3.666065064	 -0.003360000	 0.898765920
H	 -1.079935064	 -0.006460000	 1.869015920
H	 -1.024445064	 0.006610000	 -2.330324080
