12
0  1  0  1  0  1   9   3 -2.02632 -1.50214 -1.96030 -2.48448 -1.98949 -2.28527  1.29551  1.29075  1.26794 -1.59286 -16.12696 26.28667 -6.77781 -4.97475
O	 1.621370000	 -0.936100000	 0.000000000
H	 2.507010000	 -0.571640000	 -0.057800000
H	 1.748870000	 -1.884970000	 -0.062510000
C	 -2.918658005	 -0.115931644	 0.570380000
C	 -1.639188005	 -0.117561644	 1.081670000
N	 -0.814208005	 -0.114181644	 -0.010770000
C	 -1.607278005	 -0.110721644	 -1.114680000
N	 -2.893858005	 -0.111661644	 -0.801070000
H	 0.197871995	 -0.114241644	 0.000000000
H	 -3.845648005	 -0.117601644	 1.116690000
H	 -1.259518005	 -0.120701644	 2.086940000
H	 -1.204028005	 -0.107631644	 -2.112400000
