12
0  1  0  1  0  1   9   3 -6.04501 -5.81113 -5.95972 -6.19360 -5.98235 -6.11557 -4.53966 -4.54618 -4.57247 -5.92783 -7.99644  6.58793 -2.28108 -2.23825
O	 0.000000000	 0.000000000	 0.000000000
H	 0.584750000	 0.758450000	 -0.057800000
H	 0.584850000	 -0.758000000	 -0.062510000
C	 -4.733242887	 -0.001690000	 -2.074117875
C	 -3.880832888	 -0.003320000	 -0.991597875
N	 -2.620152888	 0.000060000	 -1.525187875
C	 -2.755022888	 0.003520000	 -2.877737875
N	 -4.026032888	 0.002580000	 -3.249427875
H	 -1.749052888	 0.000000000	 -1.009817875
H	 -5.809192888	 -0.003360000	 -2.064497875
H	 -4.054662888	 -0.006460000	 0.068832125
H	 -1.906932888	 0.006610000	 -3.540157875
