12
0  1  0  1  0  1   9   3 -5.14738 -4.92069 -5.05640 -5.28309 -5.08098 -5.20670 -3.64721 -3.64997 -3.67102 -4.95690 -6.70325  6.06769 -2.07695 -2.24438
O	 0.000000000	 0.000000000	 0.000000000
H	 0.584750000	 0.758450000	 -0.057800000
H	 0.584850000	 -0.758000000	 -0.062510000
C	 -4.431446946	 2.556545439	 0.570380000
C	 -3.324206946	 1.915395439	 1.081670000
N	 -2.608066946	 1.505835439	 -0.010770000
C	 -3.293156946	 1.905365439	 -1.114680000
N	 -4.407836946	 2.547845439	 -0.801070000
H	 -1.731606946	 0.999745439	 0.000000000
H	 -5.235076946	 3.018595439	 1.116690000
H	 -2.996976946	 1.722845439	 2.086940000
H	 -2.942386946	 1.706415439	 -2.112400000
