12
0  1  0  1  0  1   9   3 -5.31274 -5.03082 -5.22924 -5.51115 -5.24959 -5.41201 -3.46377 -3.46371 -3.49026 -5.09128 -8.70836  8.93978 -2.60831 -2.71439
O	 1.621370000	 0.936100000	 0.000000000
H	 1.748560000	 1.885310000	 -0.057800000
H	 2.506870000	 0.572080000	 -0.062510000
C	 -3.185594687	 -0.041564584	 0.570380000
C	 -1.906124687	 -0.043194584	 1.081670000
N	 -1.081144687	 -0.039814584	 -0.010770000
C	 -1.874214687	 -0.036354584	 -1.114680000
N	 -3.160794687	 -0.037294584	 -0.801070000
H	 -0.069064687	 -0.039874584	 0.000000000
H	 -4.112584687	 -0.043234584	 1.116690000
H	 -1.526454687	 -0.046334584	 2.086940000
H	 -1.470964687	 -0.033264584	 -2.112400000
