12
0  1  0  1  0  1   9   3 -5.52651 -5.37671 -5.47658 -5.62637 -5.49332 -5.57644 -4.51724 -4.51983 -4.53453 -5.51979 -5.89278  3.21100 -1.30441 -1.53360
O	 0.000000000	 0.000000000	 0.000000000
H	 0.584750000	 0.758450000	 -0.057800000
H	 0.584850000	 -0.758000000	 -0.062510000
C	 -4.908148176	 -0.001690000	 -2.175099663
C	 -4.055738176	 -0.003320000	 -1.092579663
N	 -2.795058176	 0.000060000	 -1.626169663
C	 -2.929928176	 0.003520000	 -2.978719663
N	 -4.200938176	 0.002580000	 -3.350409663
H	 -1.923958176	 0.000000000	 -1.110799663
H	 -5.984098176	 -0.003360000	 -2.165479663
H	 -4.229568176	 -0.006460000	 -0.032149663
H	 -2.081838176	 0.006610000	 -3.641139663
