12
0  1  0  1  0  1   9   3 -6.03819 -5.83197 -5.96879 -6.17502 -5.98775 -6.10538 -4.79159 -4.79539 -4.81759 -5.91867 -7.15048  5.12059 -1.89742 -1.99136
O	 1.872200000	 0.000000000	 0.000000000
H	 2.456950000	 0.758450000	 -0.057800000
H	 2.457050000	 -0.758000000	 -0.062510000
C	 -3.308705713	 -0.001690000	 0.570380000
C	 -2.029235713	 -0.003320000	 1.081670000
N	 -1.204255713	 0.000060000	 -0.010770000
C	 -1.997325713	 0.003520000	 -1.114680000
N	 -3.283905713	 0.002580000	 -0.801070000
H	 -0.192175713	 0.000000000	 0.000000000
H	 -4.235695713	 -0.003360000	 1.116690000
H	 -1.649565713	 -0.006460000	 2.086940000
H	 -1.594075713	 0.006610000	 -2.112400000
