12
0  1  0  1  0  1   9   3 -4.81377 -4.66685 -4.75350 -4.90042 -4.77158 -4.85101 -3.82047 -3.82120 -3.83291 -4.74927 -4.95047  2.91360 -1.17618 -1.53623
O	 0.000000000	 0.000000000	 0.000000000
H	 0.584750000	 0.758450000	 -0.057800000
H	 0.584850000	 -0.758000000	 -0.062510000
C	 -4.604607641	 2.656519983	 0.570380000
C	 -3.497367641	 2.015369983	 1.081670000
N	 -2.781227641	 1.605809983	 -0.010770000
C	 -3.466317641	 2.005339983	 -1.114680000
N	 -4.580997641	 2.647819983	 -0.801070000
H	 -1.904767641	 1.099719983	 0.000000000
H	 -5.408237641	 3.118569983	 1.116690000
H	 -3.170137641	 1.822819983	 2.086940000
H	 -3.115547641	 1.806389983	 -2.112400000
