12
0  1  0  1  0  1   9   3 -5.33180 -5.18292 -5.28336 -5.43225 -5.30084 -5.38061 -4.32983 -4.33043 -4.33943 -5.32951 -5.56442  2.97568 -1.14505 -1.59571
O	 1.621370000	 0.000000000	 0.936100000
H	 2.156680000	 0.758450000	 1.178420000
H	 2.159120000	 -0.758000000	 1.174390000
C	 -3.440431085	 -0.001690000	 0.383375303
C	 -2.160961085	 -0.003320000	 0.894665303
N	 -1.335981085	 0.000060000	 -0.197774697
C	 -2.129051085	 0.003520000	 -1.301684697
N	 -3.415631085	 0.002580000	 -0.988074697
H	 -0.323901085	 0.000000000	 -0.187004697
H	 -4.367421085	 -0.003360000	 0.929685303
H	 -1.781291085	 -0.006460000	 1.899935303
H	 -1.725801085	 0.006610000	 -2.299404697
