12
0  1  0  1  0  1   9   3 -5.67196 -5.38589 -5.55402 -5.84010 -5.58045 -5.73929 -3.77516 -3.77831 -3.79900 -5.44542 -8.89196  8.85131 -2.59441 -2.81036
O	 1.621370000	 0.000000000	 -0.936100000
H	 2.098880000	 0.758450000	 -1.278530000
H	 2.096610000	 -0.758000000	 -1.282660000
C	 -3.183330444	 -0.001690000	 0.608947320
C	 -1.903860444	 -0.003320000	 1.120237320
N	 -1.078880444	 0.000060000	 0.027797320
C	 -1.871950444	 0.003520000	 -1.076112680
N	 -3.158530444	 0.002580000	 -0.762502680
H	 -0.066800444	 0.000000000	 0.038567320
H	 -4.110320444	 -0.003360000	 1.155257320
H	 -1.524190444	 -0.006460000	 2.125507320
H	 -1.468700444	 0.006610000	 -2.073832680
