12
0  1  0  1  0  1   9   3 -1.80499 -1.29828 -1.73352 -2.24023 -1.77111 -2.04718  1.43697  1.43041  1.41890 -1.30305 -14.52628 25.51224 -7.31292 -4.97609
O	 0.000000000	 0.000000000	 0.000000000
H	 0.584750000	 0.758450000	 -0.057800000
H	 0.584850000	 -0.758000000	 -0.062510000
C	 -4.085125557	 2.356596351	 0.570380000
C	 -2.977885557	 1.715446351	 1.081670000
N	 -2.261745557	 1.305886351	 -0.010770000
C	 -2.946835557	 1.705416351	 -1.114680000
N	 -4.061515557	 2.347896351	 -0.801070000
H	 -1.385285557	 0.799796351	 0.000000000
H	 -4.888755557	 2.818646351	 1.116690000
H	 -2.650655557	 1.522896351	 2.086940000
H	 -2.596065557	 1.506466351	 -2.112400000
