12
0  1  0  1  0  1   9   3 -5.36650 -5.21671 -5.29806 -5.44786 -5.31640 -5.39575 -4.34652 -4.34736 -4.35530 -5.33120 -5.55134  2.91493 -1.10873 -1.58606
O	 1.621370000	 0.000000000	 -0.936100000
H	 2.098880000	 0.758450000	 -1.278530000
H	 2.096610000	 -0.758000000	 -1.282660000
C	 -3.449883672	 -0.001690000	 0.762842160
C	 -2.170413672	 -0.003320000	 1.274132160
N	 -1.345433672	 0.000060000	 0.181692160
C	 -2.138503672	 0.003520000	 -0.922217840
N	 -3.425083672	 0.002580000	 -0.608607840
H	 -0.333353672	 0.000000000	 0.192462160
H	 -4.376873672	 -0.003360000	 1.309152160
H	 -1.790743672	 -0.006460000	 2.279402160
H	 -1.735253672	 0.006610000	 -1.919937840
