12
0  1  0  1  0  1   9   3 -5.04248 -4.85934 -4.96588 -5.14902 -4.98714 -5.08774 -3.81874 -3.82053 -3.83715 -4.92310 -5.72404  4.20905 -1.55434 -1.85377
O	 0.000000000	 0.000000000	 0.000000000
H	 0.584750000	 0.758450000	 -0.057800000
H	 0.584850000	 -0.758000000	 -0.062510000
C	 -4.518027294	 2.606532711	 0.570380000
C	 -3.410787294	 1.965382711	 1.081670000
N	 -2.694647294	 1.555822711	 -0.010770000
C	 -3.379737294	 1.955352711	 -1.114680000
N	 -4.494417294	 2.597832711	 -0.801070000
H	 -1.818187294	 1.049732711	 0.000000000
H	 -5.321657294	 3.068582711	 1.116690000
H	 -3.083557294	 1.772832711	 2.086940000
H	 -3.028967294	 1.756402711	 -2.112400000
