12
0  1  0  1  0  1   9   3 -5.41304 -5.18541 -5.34086 -5.56849 -5.35882 -5.48945 -3.90361 -3.90265 -3.92495 -5.27028 -7.30861  6.20727 -1.93783 -2.23111
O	 1.621370000	 0.936100000	 0.000000000
H	 1.748560000	 1.885310000	 -0.057800000
H	 2.506870000	 0.572080000	 -0.062510000
C	 -3.274564934	 -0.092931667	 0.570380000
C	 -1.995094934	 -0.094561667	 1.081670000
N	 -1.170114934	 -0.091181667	 -0.010770000
C	 -1.963184934	 -0.087721667	 -1.114680000
N	 -3.249764934	 -0.088661667	 -0.801070000
H	 -0.158034934	 -0.091241667	 0.000000000
H	 -4.201554934	 -0.094601667	 1.116690000
H	 -1.615424934	 -0.097701667	 2.086940000
H	 -1.559934934	 -0.084631667	 -2.112400000
