17
0  1  0  1  0  1   3  14 -3.53210 -3.37266 -3.37400 -3.53344 -3.42330 -3.48851 -1.89251 -1.89724 -1.90089 -3.57562 -3.29185  2.36961 -0.73380 -1.91958
O	 -0.608790487	 2.826012391	 -2.638991092
H	 -0.948859487	 2.734084391	 -1.729833092
H	 -0.654094487	 3.767464391	 -2.811961092
N	 -3.237469049	 1.832783539	 -0.631132809
C	 -4.064368049	 1.020311539	 -1.532162809
C	 -3.084038049	 -0.061772461	 -1.996541809
C	 -2.073196049	 -0.187560461	 -0.830892809
C	 -2.559342049	 0.833030539	 0.203350191
H	 -4.452852049	 1.623634539	 -2.350055809
H	 -4.909661049	 0.562428539	 -1.003517809
H	 -3.596131049	 -0.996906461	 -2.209895809
H	 -2.573212049	 0.261700539	 -2.899419809
H	 -2.038006049	 -1.190797461	 -0.413145809
H	 -1.075784049	 0.075359539	 -1.172667809
H	 -3.252230049	 0.356183539	 0.907740191
H	 -1.748189049	 1.287073539	 0.768807191
H	 -3.808843049	 2.453160539	 -0.068695809
