17
0  1  0  1  0  1   3  14 -2.23844 -2.19904 -2.22721 -2.26661 -2.24431 -2.25575 -1.81074 -1.81151 -1.80808 -2.28426 -1.84767  0.30823 -0.23282 -0.51199
O	 -1.591187173	 4.653321031	 -2.290444862
H	 -1.819063173	 4.091363031	 -1.526938862
H	 -1.808479173	 5.540721031	 -2.001292862
N	 -2.288901241	 1.638349848	 0.446320743
C	 -3.278661241	 0.607922848	 0.108203743
C	 -2.444943241	 -0.406272152	 -0.681684257
C	 -1.009620241	 -0.235501152	 -0.127567257
C	 -1.141633241	 0.862183848	 0.933216743
H	 -4.096089241	 1.032016848	 -0.471299257
H	 -3.695301241	 0.136153848	 1.006806743
H	 -2.825159241	 -1.417149152	 -0.555991257
H	 -2.467146241	 -0.162098152	 -1.740293257
H	 -0.612731241	 -1.153919152	 0.298134743
H	 -0.340906241	 0.090873848	 -0.919444257
H	 -1.341869241	 0.416162848	 1.915363743
H	 -0.255666241	 1.488943848	 1.011316743
H	 -2.640089241	 2.262774848	 1.163559743
