17
0  1  0  1  0  1   3  14 -7.87326 -7.19145 -7.63694 -8.31875 -7.75161 -8.08718 -2.61037 -2.62915 -2.64740 -7.74694 -20.64036 28.63193 -8.61493 -7.12357
O	 -1.341610940	 2.536445917	 -2.284136495
H	 -1.681679940	 2.444517917	 -1.374978495
H	 -1.386914940	 3.477897917	 -2.457106495
N	 -2.208043194	 1.824095792	 0.179622551
C	 -3.197803194	 0.793668792	 -0.158494449
C	 -2.364085194	 -0.220526208	 -0.948382449
C	 -0.928762194	 -0.049755208	 -0.394265449
C	 -1.060775194	 1.047929792	 0.666518551
H	 -4.015231194	 1.217762792	 -0.737997449
H	 -3.614443194	 0.321899792	 0.740108551
H	 -2.744301194	 -1.231403208	 -0.822689449
H	 -2.386288194	 0.023647792	 -2.006991450
H	 -0.531873194	 -0.968173208	 0.031436551
H	 -0.260048194	 0.276619792	 -1.186142449
H	 -1.261011194	 0.601908792	 1.648665551
H	 -0.174808194	 1.674689792	 0.744618551
H	 -2.559231194	 2.448520792	 0.896861551
