17
0  1  0  1  0  1   3  14  8.71540  9.93991  8.96532  7.74082  8.81705  8.17582 18.67086 18.65065 18.60554  8.24319 -39.93545 75.45199 -14.52718 -12.74617
O	 -1.341596635	 2.524252068	 -2.280415819
H	 -1.681665635	 2.432324068	 -1.371257819
H	 -1.386900635	 3.465704068	 -2.453385819
N	 -1.804216291	 1.058909320	 -0.630582346
C	 -2.638750290	 0.129106320	 -1.401780346
C	 -1.731770291	 -0.228210680	 -2.583861346
C	 -0.296450291	 -0.057435680	 -2.029739346
C	 -0.501726290	 0.383373320	 -0.576759346
H	 -3.568636290	 0.605161320	 -1.706002346
H	 -2.880066290	 -0.772343680	 -0.824895346
H	 -1.925244291	 -1.236170680	 -2.942775346
H	 -1.899372291	 0.464540320	 -3.404088346
H	 0.287180709	 -0.972935680	 -2.088641346
H	 0.226864709	 0.717519320	 -2.583233346
H	 -0.526638290	 -0.492328680	 0.083671654
H	 0.271779709	 1.062101320	 -0.223371346
H	 -2.180553290	 1.204310320	 0.299417654
