17
0  1  0  1  0  1   3  14 -4.50514 -4.00004 -4.26214 -4.76724 -4.36083 -4.60111  0.47426  0.46450  0.45189 -4.43638 -14.23818 19.90006 -4.15590 -5.94236
O	 -1.341596635	 2.524252068	 -2.280415819
H	 -1.681665635	 2.432324068	 -1.371257819
H	 -1.386900635	 3.465704068	 -2.453385819
N	 -1.839230764	 0.666505107	 -0.418960782
C	 -2.673764763	 -0.263297893	 -1.190158782
C	 -1.766784764	 -0.620614893	 -2.372239782
C	 -0.331464763	 -0.449839893	 -1.818117782
C	 -0.536740763	 -0.009030893	 -0.365137782
H	 -3.603650763	 0.212757107	 -1.494380782
H	 -2.915080763	 -1.164747893	 -0.613273782
H	 -1.960258763	 -1.628574893	 -2.731153782
H	 -1.934386764	 0.072136107	 -3.192466782
H	 0.252166237	 -1.365339893	 -1.877019782
H	 0.191850236	 0.325115107	 -2.371611782
H	 -0.561652764	 -0.884732893	 0.295293218
H	 0.236765237	 0.669697107	 -0.011749782
H	 -2.215567763	 0.811906107	 0.511039218
