17
0  1  0  1  0  1   3  14 -2.53400 -2.45757 -2.47775 -2.55418 -2.50546 -2.53266 -1.65578 -1.65618 -1.65388 -2.52509 -1.77723  0.45237 -0.24965 -0.95058
O	 0.664470015	 2.950034239	 -2.060390064
H	 -0.073608985	 2.850755239	 -1.431067064
H	 0.819245015	 3.895182239	 -2.092690064
N	 -2.376173951	 1.700380238	 0.441527153
C	 -3.365933951	 0.669953238	 0.103410153
C	 -2.532215951	 -0.344241762	 -0.686477847
C	 -1.096892951	 -0.173470762	 -0.132360847
C	 -1.228905951	 0.924214238	 0.928423153
H	 -4.183361951	 1.094047238	 -0.476092847
H	 -3.782573951	 0.198184238	 1.002013153
H	 -2.912431951	 -1.355118762	 -0.560784847
H	 -2.554418951	 -0.100067762	 -1.745086847
H	 -0.700003951	 -1.091888762	 0.293341153
H	 -0.428178951	 0.152904238	 -0.924237847
H	 -1.429141951	 0.478193238	 1.910570153
H	 -0.342938951	 1.550974238	 1.006523153
H	 -2.727361951	 2.324805238	 1.158766153
