17
0  1  0  1  0  1   3  14 -8.39207 -7.81646 -8.16544 -8.74105 -8.27110 -8.55040 -3.78197 -3.79963 -3.81767 -8.23015 -16.99749 21.39060 -6.56907 -6.05419
O	 -1.341610940	 2.536445917	 -2.284136495
H	 -1.681679940	 2.444517917	 -1.374978495
H	 -1.386914940	 3.477897917	 -2.457106495
N	 -2.237285597	 1.789627896	 0.265989275
C	 -3.227045597	 0.759200896	 -0.072127725
C	 -2.393327597	 -0.254994104	 -0.862015725
C	 -0.958004597	 -0.084223104	 -0.307898725
C	 -1.090017597	 1.013461896	 0.752885275
H	 -4.044473597	 1.183294896	 -0.651630725
H	 -3.643685597	 0.287431896	 0.826475275
H	 -2.773543597	 -1.265871104	 -0.736322725
H	 -2.415530597	 -0.010820104	 -1.920624725
H	 -0.561115597	 -1.002641104	 0.117803275
H	 -0.289290597	 0.242151896	 -1.099775725
H	 -1.290253597	 0.567440896	 1.735032275
H	 -0.204050597	 1.640221896	 0.830985275
H	 -2.588473597	 2.414052896	 0.983228275
