17
0  1  0  1  0  1   3  14 -4.08860 -3.92130 -3.95787 -4.12517 -4.01128 -4.07764 -2.35200 -2.35586 -2.35710 -4.02225 -3.31301  1.90459 -0.70660 -1.90724
O	 -2.927440024	 2.400313685	 -3.062377796
H	 -2.793940024	 2.404798685	 -2.096549796
H	 -3.210804024	 3.293299685	 -3.263833796
N	 -2.240157399	 1.722678066	 0.474801290
C	 -3.229917399	 0.692251066	 0.136684290
C	 -2.396199399	 -0.321943934	 -0.653203710
C	 -0.960876399	 -0.151172934	 -0.099086710
C	 -1.092889399	 0.946512066	 0.961697290
H	 -4.047345399	 1.116345066	 -0.442818710
H	 -3.646557399	 0.220482066	 1.035287290
H	 -2.776415399	 -1.332820934	 -0.527510710
H	 -2.418402399	 -0.077769934	 -1.711812710
H	 -0.563987399	 -1.069590934	 0.326615290
H	 -0.292162399	 0.175202066	 -0.890963710
H	 -1.293125399	 0.500491066	 1.943844290
H	 -0.206922399	 1.573272066	 1.039797290
H	 -2.591345399	 2.347103066	 1.192040290
