17
0  1  0  1  0  1   3  14 -2.69223 -2.59546 -2.58797 -2.68473 -2.62132 -2.65757 -1.60274 -1.60242 -1.60145 -2.69819 -1.94392  0.80489 -0.36223 -1.19692
O	 -0.981791279	 2.152420708	 -3.097812956
H	 -1.321860279	 2.060492708	 -2.188654956
H	 -1.027095279	 3.093872708	 -3.270782956
N	 -2.483474986	 3.309213915	 0.435394748
C	 -3.649560986	 2.420202915	 0.510424748
C	 -3.018488986	 1.032066915	 0.360672748
C	 -1.583163986	 1.202831915	 0.914787748
C	 -1.512530986	 2.674453915	 1.335433748
H	 -4.363713986	 2.651548915	 -0.277187252
H	 -4.158876986	 2.501075915	 1.478773748
H	 -3.587678986	 0.276749915	 0.897100748
H	 -2.981909986	 0.751224915	 -0.688401252
H	 -1.375248986	 0.539971915	 1.751222748
H	 -0.855668986	 1.004187915	 0.132445748
H	 -1.805441986	 2.781073915	 2.387325748
H	 -0.523285986	 3.108455915	 1.205421748
H	 -2.715412986	 4.245348915	 0.747688748
