17
0  1  0  1  0  1   3  14 -5.17656 -4.84662 -4.97697 -5.30691 -5.05559 -5.20486 -1.66413 -1.67101 -1.68044 -5.22044 -8.87041 10.07503 -2.33310 -4.09195
O	 -1.341596635	 2.524252068	 -2.280415819
H	 -1.681665635	 2.432324068	 -1.371257819
H	 -1.386900635	 3.465704068	 -2.453385819
N	 -1.856738000	 0.470303000	 -0.313150000
C	 -2.691272000	 -0.459500000	 -1.084348000
C	 -1.784292000	 -0.816817000	 -2.266429000
C	 -0.348972000	 -0.646042000	 -1.712307000
C	 -0.554248000	 -0.205233000	 -0.259327000
H	 -3.621158000	 0.016555000	 -1.388570000
H	 -2.932588000	 -1.360950000	 -0.507463000
H	 -1.977766000	 -1.824777000	 -2.625343000
H	 -1.951894000	 -0.124066000	 -3.086656000
H	 0.234659000	 -1.561542000	 -1.771209000
H	 0.174343000	 0.128913000	 -2.265801000
H	 -0.579160000	 -1.080935000	 0.401104000
H	 0.219258000	 0.473495000	 0.094061000
H	 -2.233075000	 0.615704000	 0.616850000
