17
0  1  0  1  0  1   3  14 -1.96149 -1.90463 -1.90845 -1.96531 -1.92889 -1.94945 -1.26706 -1.26773 -1.26655 -1.99273 -1.38464  0.39565 -0.20691 -0.79683
O	 -0.608790487	 2.826012391	 -2.638991092
H	 -0.948859487	 2.734084391	 -1.729833092
H	 -0.654094487	 3.767464391	 -2.811961092
N	 -3.746048951	 1.632494461	 -0.386977191
C	 -4.572947951	 0.820022461	 -1.288007191
C	 -3.592617951	 -0.262061539	 -1.752386191
C	 -2.581775951	 -0.387849539	 -0.586737191
C	 -3.067921951	 0.632741461	 0.447505809
H	 -4.961431951	 1.423345461	 -2.105900191
H	 -5.418240951	 0.362139461	 -0.759362191
H	 -4.104710951	 -1.197195539	 -1.965740191
H	 -3.081791951	 0.061411461	 -2.655264191
H	 -2.546585951	 -1.391086539	 -0.168990191
H	 -1.584363951	 -0.124929539	 -0.928512191
H	 -3.760809951	 0.155894461	 1.151895809
H	 -2.256768951	 1.086784461	 1.012962809
H	 -4.317422951	 2.252871461	 0.175459809
