17
0  1  0  1  0  1   3  14 -3.53199 -3.37259 -3.37394 -3.53334 -3.42324 -3.48843 -1.89245 -1.89718 -1.90083 -3.57554 -3.29174  2.36951 -0.73378 -1.91953
O	 -1.692480441	 2.697085088	 -3.057369695
H	 -2.032549441	 2.605157087	 -2.148211695
H	 -1.737784441	 3.638537088	 -3.230339695
N	 -0.931079544	 2.107176209	 0.259291631
C	 -1.768322544	 0.927125209	 0.508753630
C	 -1.222758544	 -0.086390791	 -0.502555370
C	 0.252452456	 0.335182209	 -0.708444370
C	 0.428091456	 1.554801209	 0.202205631
H	 -2.820095544	 1.159521209	 0.355021631
H	 -1.639869544	 0.547996209	 1.530224631
H	 -1.320136544	 -1.105401791	 -0.135992369
H	 -1.767218544	 -0.006913791	 -1.439578369
H	 0.953775456	 -0.455581791	 -0.453351369
H	 0.418109456	 0.617588209	 -1.744578369
H	 0.778961456	 1.239233209	 1.192634630
H	 1.127048456	 2.287506209	 -0.195874370
H	 -1.020282544	 2.784919209	 1.007876630
