17
0  1  0  1  0  1   3  14 -0.58670 -0.12576 -0.20198 -0.66292 -0.29715 -0.51529  3.90940  3.89822  3.88237 -0.00127 -6.21663 12.77999 -1.81713 -4.74749
O	 -0.883366864	 0.917724735	 -2.971886406
H	 -1.244504864	 1.320459735	 -2.160683406
H	 -0.744545864	 1.660967735	 -3.560632406
N	 -2.317629157	 1.776895013	 0.478007970
C	 -3.307389157	 0.746468013	 0.139890970
C	 -2.473671157	 -0.267726987	 -0.649997030
C	 -1.038348157	 -0.096955987	 -0.095880030
C	 -1.170361157	 1.000729013	 0.964903970
H	 -4.124817157	 1.170562013	 -0.439612030
H	 -3.724029157	 0.274699013	 1.038493970
H	 -2.853887157	 -1.278603987	 -0.524304030
H	 -2.495874157	 -0.023552987	 -1.708606030
H	 -0.641459157	 -1.015373987	 0.329821970
H	 -0.369634157	 0.229419013	 -0.887757030
H	 -1.370597157	 0.554708013	 1.947050970
H	 -0.284394157	 1.627489013	 1.043003970
H	 -2.668817157	 2.401320013	 1.195246970
