17
0  1  0  1  0  1   3  14 -4.11241 -3.34944 -3.77211 -4.53509 -3.90111 -4.26900  2.09635  2.07659  2.07334 -3.55973 -17.11721 28.62946 -7.22090 -7.85108
O	 -2.927440024	 2.400313685	 -3.062377796
H	 -2.793940024	 2.404798685	 -2.096549796
H	 -3.210804024	 3.293299685	 -3.263833796
N	 -2.424751607	 1.950051606	 -0.382315739
C	 -3.414511607	 0.919624605	 -0.720432739
C	 -2.580793607	 -0.094570395	 -1.510320739
C	 -1.145470607	 0.076200605	 -0.956203739
C	 -1.277483607	 1.173885605	 0.104580261
H	 -4.231939607	 1.343718605	 -1.299935739
H	 -3.831151607	 0.447855605	 0.178170261
H	 -2.961009607	 -1.105447395	 -1.384627739
H	 -2.602996607	 0.149603605	 -2.568929739
H	 -0.748581607	 -0.842217395	 -0.530501739
H	 -0.476756607	 0.402575605	 -1.748080739
H	 -1.477719607	 0.727864605	 1.086727261
H	 -0.391516607	 1.800645605	 0.182680261
H	 -2.775939607	 2.574476606	 0.334923261
