17
0  1  0  1  0  1   3  14 -5.22839 -4.95362 -5.02804 -5.30281 -5.10369 -5.22129 -2.57457 -2.58340 -2.58927 -5.05837 -5.26011  4.62888 -1.43650 -2.99064
O	 0.664470015	 2.950034239	 -2.060390064
H	 -0.073608985	 2.850755239	 -1.431067064
H	 0.819245015	 3.895182239	 -2.092690064
N	 -1.827944197	 1.974279048	 -0.004328613
C	 -2.817704197	 0.943852048	 -0.342445613
C	 -1.983986197	 -0.070342952	 -1.132333613
C	 -0.548663197	 0.100428048	 -0.578216613
C	 -0.680676197	 1.198113048	 0.482567387
H	 -3.635132197	 1.367946048	 -0.921948613
H	 -3.234344197	 0.472083048	 0.556157387
H	 -2.364202197	 -1.081219952	 -1.006640613
H	 -2.006189197	 0.173831048	 -2.190942613
H	 -0.151774197	 -0.817989952	 -0.152514613
H	 0.120050803	 0.426803048	 -1.370093613
H	 -0.880912197	 0.752092048	 1.464714387
H	 0.205290803	 1.824873048	 0.560667387
H	 -2.179132197	 2.598704048	 0.712910387
