17
0  1  0  1  0  1   3  14 -2.29112 -2.21795 -2.21968 -2.29284 -2.24566 -2.27265 -1.43235 -1.43365 -1.43296 -2.32606 -1.68034  0.62024 -0.27929 -0.98666
O	 -0.608790487	 2.826012391	 -2.638991092
H	 -0.948859487	 2.734084391	 -1.729833092
H	 -0.654094487	 3.767464391	 -2.811961092
N	 -3.618903976	 1.682566730	 -0.448016095
C	 -4.445802976	 0.870094730	 -1.349046095
C	 -3.465472976	 -0.211989270	 -1.813425095
C	 -2.454630976	 -0.337777270	 -0.647776095
C	 -2.940776976	 0.682813730	 0.386466905
H	 -4.834286976	 1.473417730	 -2.166939095
H	 -5.291095976	 0.412211730	 -0.820401095
H	 -3.977565976	 -1.147123270	 -2.026779095
H	 -2.954646976	 0.111483730	 -2.716303095
H	 -2.419440976	 -1.341014270	 -0.230029095
H	 -1.457218976	 -0.074857270	 -0.989551095
H	 -3.633664976	 0.205966730	 1.090856905
H	 -2.129623976	 1.136856730	 0.951923905
H	 -4.190277976	 2.302943730	 0.114420905
