17
0  1  0  1  0  1   3  14 -4.76679 -4.44885 -4.49438 -4.81231 -4.58114 -4.71940 -1.92099 -1.93359 -1.94453 -4.68808 -5.75119  5.94832 -1.60311 -3.28210
O	 -0.981791279	 2.152420708	 -3.097812956
H	 -1.321860279	 2.060492708	 -2.188654956
H	 -1.027095279	 3.093872708	 -3.270782956
N	 -2.206900056	 3.011899342	 -0.189378991
C	 -3.372986056	 2.122888342	 -0.114348991
C	 -2.741914056	 0.734752342	 -0.264100991
C	 -1.306589056	 0.905517342	 0.290014009
C	 -1.235956056	 2.377139342	 0.710660009
H	 -4.087139056	 2.354234342	 -0.901960991
H	 -3.882302056	 2.203761342	 0.854000009
H	 -3.311104056	 -0.020564658	 0.272327009
H	 -2.705335056	 0.453910342	 -1.313174991
H	 -1.098674056	 0.242657342	 1.126449009
H	 -0.579094056	 0.706873342	 -0.492327991
H	 -1.528867056	 2.483759342	 1.762552009
H	 -0.246711056	 2.811141342	 0.580648009
H	 -2.438838056	 3.948034342	 0.122915009
