17
0  1  0  1  0  1   3  14 -8.45990 -7.97178 -8.24429 -8.73241 -8.34087 -8.57538 -4.42849 -4.44477 -4.46410 -8.31420 -14.08573 15.96647 -5.03725 -5.15769
O	 -1.341610940	 2.536445917	 -2.284136495
H	 -1.681679940	 2.444517917	 -1.374978495
H	 -1.386914940	 3.477897917	 -2.457106495
N	 -2.266528000	 1.755160000	 0.352356000
C	 -3.256288000	 0.724733000	 0.014239000
C	 -2.422570000	 -0.289462000	 -0.775649000
C	 -0.987247000	 -0.118691000	 -0.221532000
C	 -1.119260000	 0.978994000	 0.839252000
H	 -4.073716000	 1.148827000	 -0.565264000
H	 -3.672928000	 0.252964000	 0.912842000
H	 -2.802786000	 -1.300339000	 -0.649956000
H	 -2.444773000	 -0.045288000	 -1.834258000
H	 -0.590358000	 -1.037109000	 0.204170000
H	 -0.318533000	 0.207684000	 -1.013409000
H	 -1.319496000	 0.532973000	 1.821399000
H	 -0.233293000	 1.605754000	 0.917352000
H	 -2.617716000	 2.379585000	 1.069595000
