17
0  1  0  1  0  1   3  14 14.01330 15.26029 14.59362 13.34660 14.44774 13.78896 24.45776 24.44478 24.39217 15.02744 -25.13472 59.20882 -7.18507 -11.86160
O	 -0.883366864	 0.917724735	 -2.971886406
H	 -1.244504864	 1.320459735	 -2.160683406
H	 -0.744545864	 1.660967735	 -3.560632406
N	 -2.062123373	 1.668219947	 -0.150251881
C	 -3.051883373	 0.637792947	 -0.488368881
C	 -2.218165373	 -0.376402053	 -1.278256881
C	 -0.782842373	 -0.205631053	 -0.724139881
C	 -0.914855373	 0.892053947	 0.336644119
H	 -3.869311373	 1.061886947	 -1.067871881
H	 -3.468523373	 0.166023947	 0.410234119
H	 -2.598381373	 -1.387279053	 -1.152563881
H	 -2.240368373	 -0.132228053	 -2.336865881
H	 -0.385953373	 -1.124049053	 -0.298437881
H	 -0.114128373	 0.120743947	 -1.516016881
H	 -1.115091373	 0.446032947	 1.318791119
H	 -0.028888373	 1.518813947	 0.414744119
H	 -2.413311373	 2.292644947	 0.566987119
