17
0  1  0  1  0  1   3  14 -4.33962 -3.89546 -4.00949 -4.45365 -4.10140 -4.31236 -0.42248 -0.43099 -0.44833 -4.29161 -10.26886 14.01176 -3.16385 -4.87066
O	 -1.692480441	 2.697085088	 -3.057369695
H	 -2.032549441	 2.605157087	 -2.148211695
H	 -1.737784441	 3.638537088	 -3.230339695
N	 -1.175850632	 2.217838626	 -0.275709109
C	 -2.013093632	 1.037787626	 -0.026247109
C	 -1.467529632	 0.024271626	 -1.037556109
C	 0.007681368	 0.445844626	 -1.243445109
C	 0.183320368	 1.665463626	 -0.332795109
H	 -3.064866632	 1.270183626	 -0.179979109
H	 -1.884640632	 0.658658626	 0.995223891
H	 -1.564907632	 -0.994739374	 -0.670993109
H	 -2.011989632	 0.103748626	 -1.974579109
H	 0.709004368	 -0.344919374	 -0.988352109
H	 0.173338368	 0.728250626	 -2.279579109
H	 0.534190368	 1.349895626	 0.657633891
H	 0.882277368	 2.398168626	 -0.730875109
H	 -1.265053632	 2.895581626	 0.472875891
