17
0  1  0  1  0  1   3  14 -4.73187 -4.51746 -4.58628 -4.80070 -4.64789 -4.73795 -2.25049 -2.25602 -2.26009 -4.83756 -5.72923  5.06950 -1.34942 -2.82840
O	 -1.341596635	 2.524252068	 -2.280415819
H	 -1.681665635	 2.432324068	 -1.371257819
H	 -1.386900635	 3.465704068	 -2.453385819
N	 -1.874245236	 0.274100893	 -0.207339218
C	 -2.708779237	 -0.655702107	 -0.978537218
C	 -1.801799236	 -1.013019107	 -2.160618218
C	 -0.366479237	 -0.842244107	 -1.606496218
C	 -0.571755236	 -0.401435107	 -0.153516218
H	 -3.638665237	 -0.179647107	 -1.282759218
H	 -2.950095237	 -1.557152107	 -0.401652218
H	 -1.995273236	 -2.020979107	 -2.519532218
H	 -1.969401236	 -0.320268107	 -2.980845218
H	 0.217151764	 -1.757744107	 -1.665398218
H	 0.156835764	 -0.067289107	 -2.159990218
H	 -0.596667236	 -1.277137107	 0.506914782
H	 0.201750764	 0.277292893	 0.199871782
H	 -2.250582237	 0.419501893	 0.722660782
