17
0  1  0  1  0  1   3  14 -6.17837 -5.90373 -5.99346 -6.26810 -6.05924 -6.18527 -3.89175 -3.90898 -3.92149 -6.06731 -8.74611  8.45210 -2.87596 -2.89735
O	 -1.591187173	 4.653321031	 -2.290444862
H	 -1.819063173	 4.091363031	 -1.526938862
H	 -1.808479173	 5.540721031	 -2.001292862
N	 -2.132288552	 2.456020909	 -0.211432459
C	 -3.122048552	 1.425593909	 -0.549549459
C	 -2.288330552	 0.411398909	 -1.339437459
C	 -0.853007552	 0.582169909	 -0.785320459
C	 -0.985020552	 1.679854909	 0.275463541
H	 -3.939476552	 1.849687909	 -1.129052459
H	 -3.538688552	 0.953824909	 0.349053541
H	 -2.668546552	 -0.599478091	 -1.213744459
H	 -2.310533552	 0.655572909	 -2.398046459
H	 -0.456118552	 -0.336248091	 -0.359618459
H	 -0.184293552	 0.908544909	 -1.577197459
H	 -1.185256552	 1.233833909	 1.257610541
H	 -0.099053552	 2.306614909	 0.353563541
H	 -2.483476552	 3.080445909	 0.505806541
