17
0  1  0  1  0  1   3  14 -1.96137 -1.90456 -1.90841 -1.96522 -1.92883 -1.94937 -1.26699 -1.26766 -1.26649 -1.99265 -1.38457  0.39562 -0.20690 -0.79681
O	 -1.692480441	 2.697085088	 -3.057369695
H	 -2.032549441	 2.605157087	 -2.148211695
H	 -1.737784441	 3.638537088	 -3.230339695
N	 -0.686308456	 1.996513791	 0.794292370
C	 -1.523551456	 0.816462791	 1.043754370
C	 -0.977987456	 -0.197053209	 0.032445370
C	 0.497223544	 0.224519791	 -0.173443630
C	 0.672862544	 1.444138791	 0.737206370
H	 -2.575324456	 1.048858791	 0.890022370
H	 -1.395098456	 0.437333791	 2.065225370
H	 -1.075365456	 -1.216064209	 0.399008370
H	 -1.522447456	 -0.117576209	 -0.904577630
H	 1.198546544	 -0.566244209	 0.081649370
H	 0.662880544	 0.506925791	 -1.209577630
H	 1.023732544	 1.128570791	 1.727635370
H	 1.371819544	 2.176843791	 0.339126370
H	 -0.775511456	 2.674256791	 1.542877370
