17
0  1  0  1  0  1   3  14 -4.46967 -3.49847 -4.20725 -5.17845 -4.33962 -4.83846  2.34242  2.32277  2.28983 -4.77358 -30.88298 51.12386 -15.07819 -9.93627
O	 -1.341610940	 2.536445917	 -2.284136495
H	 -1.681679940	 2.444517917	 -1.374978495
H	 -1.386914940	 3.477897917	 -2.457106495
N	 -2.149558388	 1.893031583	 0.006889101
C	 -3.139318388	 0.862604583	 -0.331227899
C	 -2.305600388	 -0.151590417	 -1.121115899
C	 -0.870277388	 0.019180583	 -0.566998899
C	 -1.002290388	 1.116865583	 0.493785101
H	 -3.956746388	 1.286698583	 -0.910730899
H	 -3.555958388	 0.390835583	 0.567375101
H	 -2.685816388	 -1.162467417	 -0.995422899
H	 -2.327803388	 0.092583583	 -2.179724899
H	 -0.473388388	 -0.899237417	 -0.141296899
H	 -0.201563388	 0.345555583	 -1.358875899
H	 -1.202526388	 0.670844583	 1.475932101
H	 -0.116323388	 1.743625583	 0.571885101
H	 -2.500746388	 2.517456583	 0.724128101
