17
0  1  0  1  0  1   3  14 -4.04593 -3.88176 -3.91752 -4.08169 -3.97018 -4.03512 -2.33728 -2.34099 -2.34210 -3.98211 -3.25951  1.84115 -0.68846 -1.87529
O	 0.664470015	 2.950034239	 -2.060390064
H	 -0.073608985	 2.850755239	 -1.431067064
H	 0.819245015	 3.895182239	 -2.092690064
N	 -2.047236098	 1.864719524	 0.174013694
C	 -3.036996099	 0.834292524	 -0.164103306
C	 -2.203278099	 -0.179902476	 -0.953991306
C	 -0.767955099	 -0.009131476	 -0.399874306
C	 -0.899968099	 1.088553524	 0.660909694
H	 -3.854424099	 1.258386524	 -0.743606306
H	 -3.453636099	 0.362523524	 0.734499694
H	 -2.583494099	 -1.190779476	 -0.828298306
H	 -2.225481099	 0.064271524	 -2.012600306
H	 -0.371066099	 -0.927549476	 0.025827694
H	 -0.099241099	 0.317243524	 -1.191751306
H	 -1.100204099	 0.642532524	 1.643056694
H	 -0.014001099	 1.715313524	 0.739009694
H	 -2.398424099	 2.489144524	 0.891252694
