17
0  1  0  1  0  1   3  14 -3.11409 -3.04665 -3.07454 -3.14198 -3.10078 -3.12401 -2.42648 -2.42884 -2.42745 -3.16839 -2.69394  0.79489 -0.44990 -0.81944
O	 -1.591187173	 4.653321031	 -2.290444862
H	 -1.819063173	 4.091363031	 -1.526938862
H	 -1.808479173	 5.540721031	 -2.001292862
N	 -2.244154759	 1.871970152	 0.258391257
C	 -3.233914759	 0.841543152	 -0.079725743
C	 -2.400196759	 -0.172651848	 -0.869613743
C	 -0.964873759	 -0.001880848	 -0.315496743
C	 -1.096886759	 1.095804152	 0.745287257
H	 -4.051342759	 1.265637152	 -0.659228743
H	 -3.650554759	 0.369774152	 0.818877257
H	 -2.780412759	 -1.183528848	 -0.743920743
H	 -2.422399759	 0.071522152	 -1.928222743
H	 -0.567984759	 -0.920298848	 0.110205257
H	 -0.296159759	 0.324494152	 -1.107373743
H	 -1.297122759	 0.649783152	 1.727434257
H	 -0.210919759	 1.722564152	 0.823387257
H	 -2.595342759	 2.496395152	 0.975630257
