17
0  1  0  1  0  1   3  14 -4.80094 -4.31021 -4.45455 -4.94528 -4.56004 -4.78978 -0.67398 -0.68682 -0.70348 -4.63801 -9.88364 13.46285 -3.21271 -5.00450
O	 -0.981791279	 2.152420708	 -3.097812956
H	 -1.321860279	 2.060492708	 -2.188654956
H	 -1.027095279	 3.093872708	 -3.270782956
N	 -2.096270084	 2.892973512	 -0.439288487
C	 -3.262356084	 2.003962512	 -0.364258487
C	 -2.631284084	 0.615826512	 -0.514010487
C	 -1.195959084	 0.786591512	 0.040104513
C	 -1.125326084	 2.258213512	 0.460750513
H	 -3.976509084	 2.235308512	 -1.151870487
H	 -3.771672084	 2.084835512	 0.604090513
H	 -3.200474084	 -0.139490488	 0.022417513
H	 -2.594705084	 0.334984512	 -1.563084487
H	 -0.988044084	 0.123731512	 0.876539513
H	 -0.468464084	 0.587947512	 -0.742237487
H	 -1.418237084	 2.364833512	 1.512642513
H	 -0.136081084	 2.692215512	 0.330738513
H	 -2.328208084	 3.829108512	 -0.126994487
