17
0  1  0  1  0  1   3  14 -3.66371 -3.57416 -3.60271 -3.69225 -3.63560 -3.66845 -2.78865 -2.79339 -2.79363 -3.71682 -3.31111  1.27664 -0.63620 -1.04615
O	 -1.591187173	 4.653321031	 -2.290444862
H	 -1.819063173	 4.091363031	 -1.526938862
H	 -1.808479173	 5.540721031	 -2.001292862
N	 -2.221781517	 1.988780303	 0.164426514
C	 -3.211541517	 0.958353303	 -0.173690486
C	 -2.377823517	 -0.055841697	 -0.963578486
C	 -0.942500517	 0.114929303	 -0.409461486
C	 -1.074513517	 1.212614303	 0.651322514
H	 -4.028969517	 1.382447303	 -0.753193486
H	 -3.628181517	 0.486584303	 0.724912514
H	 -2.758039517	 -1.066718697	 -0.837885486
H	 -2.400026517	 0.188332303	 -2.022187486
H	 -0.545611517	 -0.803488697	 0.016240514
H	 -0.273786517	 0.441304303	 -1.201338486
H	 -1.274749517	 0.766593303	 1.633469514
H	 -0.188546517	 1.839374303	 0.729422514
H	 -2.572969517	 2.613205303	 0.881665514
