17
0  1  0  1  0  1   3  14 -2.66746 -2.57289 -2.57278 -2.66736 -2.60539 -2.64127 -1.60356 -1.60574 -1.60586 -2.70601 -2.06906  0.97078 -0.38113 -1.22659
O	 -1.692480441	 2.697085088	 -3.057369695
H	 -2.032549441	 2.605157087	 -2.148211695
H	 -1.737784441	 3.638537088	 -3.230339695
N	 -0.808694000	 2.051845000	 0.526792000
C	 -1.645937000	 0.871794000	 0.776254000
C	 -1.100373000	 -0.141722000	 -0.235055000
C	 0.374838000	 0.279851000	 -0.440944000
C	 0.550477000	 1.499470000	 0.469706000
H	 -2.697710000	 1.104190000	 0.622522000
H	 -1.517484000	 0.492665000	 1.797725000
H	 -1.197751000	 -1.160733000	 0.131508000
H	 -1.644833000	 -0.062245000	 -1.172078000
H	 1.076161000	 -0.510913000	 -0.185851000
H	 0.540495000	 0.562257000	 -1.477078000
H	 0.901347000	 1.183902000	 1.460135000
H	 1.249434000	 2.232175000	 0.071626000
H	 -0.897897000	 2.729588000	 1.275377000
