17
0  1  0  1  0  1   3  14 -5.10465 -4.84492 -4.91291 -5.17264 -4.98592 -5.09609 -2.57498 -2.58319 -2.58844 -4.95084 -4.97422  4.18566 -1.32211 -2.84018
O	 -2.927440024	 2.400313685	 -3.062377796
H	 -2.793940024	 2.404798685	 -2.096549796
H	 -3.210804024	 3.293299685	 -3.263833796
N	 -2.292898601	 1.787641934	 0.229910710
C	 -3.282658601	 0.757214934	 -0.108206290
C	 -2.448940601	 -0.256980066	 -0.898094290
C	 -1.013617601	 -0.086209066	 -0.343977290
C	 -1.145630601	 1.011475934	 0.716806710
H	 -4.100086601	 1.181308934	 -0.687709290
H	 -3.699298601	 0.285445934	 0.790396710
H	 -2.829156601	 -1.267857066	 -0.772401290
H	 -2.471143601	 -0.012806066	 -1.956703290
H	 -0.616728601	 -1.004627066	 0.081724710
H	 -0.344903601	 0.240165934	 -1.135854290
H	 -1.345866601	 0.565454934	 1.698953710
H	 -0.259663601	 1.638235934	 0.794906710
H	 -2.644086601	 2.412066934	 0.947149710
