17
0  1  0  1  0  1   3  14 -8.23766 -7.82298 -8.03601 -8.45069 -8.12367 -8.32108 -4.71807 -4.73283 -4.75263 -8.13013 -11.75354 11.90757 -3.88360 -4.40057
O	 -1.341610940	 2.536445917	 -2.284136495
H	 -1.681679940	 2.444517917	 -1.374978495
H	 -1.386914940	 3.477897917	 -2.457106495
N	 -2.295770403	 1.720692104	 0.438722725
C	 -3.285530403	 0.690265104	 0.100605725
C	 -2.451812403	 -0.323929896	 -0.689282275
C	 -1.016489403	 -0.153158896	 -0.135165275
C	 -1.148502403	 0.944526104	 0.925618725
H	 -4.102958403	 1.114359104	 -0.478897275
H	 -3.702170403	 0.218496104	 0.999208725
H	 -2.832028403	 -1.334806896	 -0.563589275
H	 -2.474015403	 -0.079755896	 -1.747891275
H	 -0.619600403	 -1.071576896	 0.290536725
H	 -0.347775403	 0.173216104	 -0.927042275
H	 -1.348738403	 0.498505104	 1.907765725
H	 -0.262535403	 1.571286104	 1.003718725
H	 -2.646958403	 2.345117104	 1.155961725
