17
0  1  0  1  0  1   3  14 -3.08816 -2.96419 -2.95816 -3.08212 -2.99996 -3.04759 -1.76407 -1.76557 -1.76586 -3.08691 -2.35256  1.20081 -0.47762 -1.45753
O	 -0.981791279	 2.152420708	 -3.097812956
H	 -1.321860279	 2.060492708	 -2.188654956
H	 -1.027095279	 3.093872708	 -3.270782956
N	 -2.428160000	 3.249751000	 0.310440000
C	 -3.594246000	 2.360740000	 0.385470000
C	 -2.963174000	 0.972604000	 0.235718000
C	 -1.527849000	 1.143369000	 0.789833000
C	 -1.457216000	 2.614991000	 1.210479000
H	 -4.308399000	 2.592086000	 -0.402142000
H	 -4.103562000	 2.441613000	 1.353819000
H	 -3.532364000	 0.217287000	 0.772146000
H	 -2.926595000	 0.691762000	 -0.813356000
H	 -1.319934000	 0.480509000	 1.626268000
H	 -0.800354000	 0.944725000	 0.007491000
H	 -1.750127000	 2.721611000	 2.262371000
H	 -0.467971000	 3.048993000	 1.080467000
H	 -2.660098000	 4.185886000	 0.622734000
