17
0  1  0  1  0  1   3  14 -1.31342 -0.94226 -0.97182 -1.34298 -1.05917 -1.22748  2.43081  2.42047  2.41044 -0.84311 -4.64187  9.07224 -1.36093 -3.91256
O	 -0.883366864	 0.917724735	 -2.971886406
H	 -1.244504864	 1.320459735	 -2.160683406
H	 -0.744545864	 1.660967735	 -3.560632406
N	 -2.368730314	 1.798630027	 0.603659941
C	 -3.358490314	 0.768203026	 0.265542941
C	 -2.524772314	 -0.245991973	 -0.524345059
C	 -1.089449314	 -0.075220973	 0.029771941
C	 -1.221462314	 1.022464027	 1.090555941
H	 -4.175918314	 1.192297027	 -0.313960059
H	 -3.775130314	 0.296434027	 1.164145941
H	 -2.904988314	 -1.256868973	 -0.398652059
H	 -2.546975314	 -0.001817973	 -1.582954059
H	 -0.692560314	 -0.993638973	 0.455473941
H	 -0.420735314	 0.251154027	 -0.762105059
H	 -1.421698314	 0.576443027	 2.072702941
H	 -0.335495314	 1.649224026	 1.168655941
H	 -2.719918314	 2.423055027	 1.320898941
