17
0  1  0  1  0  1   3  14 -5.88121 -5.38613 -5.59122 -6.08629 -5.69669 -5.92573 -1.50434 -1.51963 -1.52865 -5.46827 -10.06011 13.38610 -3.58403 -5.21023
O	 -2.927440024	 2.400313685	 -3.062377796
H	 -2.793940024	 2.404798685	 -2.096549796
H	 -3.210804024	 3.293299685	 -3.263833796
N	 -2.372010405	 1.885087737	 -0.137425159
C	 -3.361770405	 0.854660737	 -0.475542159
C	 -2.528052405	 -0.159534263	 -1.265430159
C	 -1.092729405	 0.011236737	 -0.711313159
C	 -1.224742405	 1.108921737	 0.349470841
H	 -4.179198405	 1.278754737	 -1.055045159
H	 -3.778410405	 0.382891737	 0.423060841
H	 -2.908268405	 -1.170411263	 -1.139737159
H	 -2.550255405	 0.084639737	 -2.324039159
H	 -0.695840405	 -0.907181263	 -0.285611159
H	 -0.424015405	 0.337611737	 -1.503190159
H	 -1.424978405	 0.662900737	 1.331617841
H	 -0.338775405	 1.735681737	 0.427570841
H	 -2.723198405	 2.509512737	 0.579813841
