17
0  1  0  1  0  1   3  14 -4.34391 -4.07577 -4.10127 -4.36942 -4.17072 -4.29031 -1.80976 -1.81669 -1.82787 -4.36702 -5.61026  5.77067 -1.48240 -3.04502
O	 -1.692480441	 2.697085088	 -3.057369695
H	 -2.032549441	 2.605157087	 -2.148211695
H	 -1.737784441	 3.638537088	 -3.230339695
N	 -1.053465088	 2.162507417	 -0.008208739
C	 -1.890708088	 0.982456417	 0.241253261
C	 -1.345144088	 -0.031059583	 -0.770055739
C	 0.130066912	 0.390513417	 -0.975944739
C	 0.305705912	 1.610132417	 -0.065294739
H	 -2.942481088	 1.214852417	 0.087521261
H	 -1.762255088	 0.603327417	 1.262724261
H	 -1.442522088	 -1.050070583	 -0.403492739
H	 -1.889604088	 0.048417417	 -1.707078739
H	 0.831389912	 -0.400250583	 -0.720851739
H	 0.295723912	 0.672919417	 -2.012078739
H	 0.656575912	 1.294564417	 0.925134261
H	 1.004662912	 2.342837417	 -0.463374739
H	 -1.142668088	 2.840250417	 0.740376261
