17
0  1  0  1  0  1   3  14 -5.03077 -4.76450 -4.85788 -5.12415 -4.92761 -5.04412 -2.07933 -2.08544 -2.09227 -5.11289 -7.09618  7.15097 -1.76789 -3.39980
O	 -1.341596635	 2.524252068	 -2.280415819
H	 -1.681665635	 2.432324068	 -1.371257819
H	 -1.386900635	 3.465704068	 -2.453385819
N	 -1.865491618	 0.372201947	 -0.260244609
C	 -2.700025618	 -0.557601053	 -1.031442609
C	 -1.793045618	 -0.914918053	 -2.213523609
C	 -0.357725618	 -0.744143053	 -1.659401609
C	 -0.563001618	 -0.303334053	 -0.206421609
H	 -3.629911618	 -0.081546053	 -1.335664609
H	 -2.941341618	 -1.459051053	 -0.454557609
H	 -1.986519618	 -1.922878053	 -2.572437609
H	 -1.960647618	 -0.222167053	 -3.033750609
H	 0.225905382	 -1.659643053	 -1.718303609
H	 0.165589382	 0.030811947	 -2.212895609
H	 -0.587913618	 -1.179036053	 0.454009391
H	 0.210504382	 0.375393947	 0.146966391
H	 -2.241828618	 0.517602947	 0.669755391
