17
0  1  0  1  0  1   3  14 -5.91711 -5.46238 -5.63905 -6.09378 -5.73998 -5.94851 -1.84252 -1.85686 -1.86632 -5.54507 -9.09747 11.48191 -3.12652 -4.80299
O	 0.664470015	 2.950034239	 -2.060390064
H	 -0.073608985	 2.850755239	 -1.431067064
H	 0.819245015	 3.895182239	 -2.092690064
N	 -1.608652295	 2.083838572	 -0.182670919
C	 -2.598412296	 1.053411572	 -0.520787919
C	 -1.764694295	 0.039216572	 -1.310675919
C	 -0.329371295	 0.209987572	 -0.756558919
C	 -0.461384295	 1.307672572	 0.304225081
H	 -3.415840295	 1.477505572	 -1.100290919
H	 -3.015052296	 0.581642572	 0.377815081
H	 -2.144910295	 -0.971660428	 -1.184982919
H	 -1.786897295	 0.283390572	 -2.369284919
H	 0.067517705	 -0.708430428	 -0.330856919
H	 0.339342705	 0.536362572	 -1.548435919
H	 -0.661620295	 0.861651572	 1.286372081
H	 0.424582705	 1.934432572	 0.382325081
H	 -1.959840296	 2.708263572	 0.534568081
