17
0  1  0  1  0  1   3  14 -3.96791 -3.76717 -3.77352 -3.97426 -3.83658 -3.91791 -2.02018 -2.02730 -2.03141 -3.94339 -3.57686  2.66480 -0.85431 -2.17702
O	 -0.981791279	 2.152420708	 -3.097812956
H	 -1.321860279	 2.060492708	 -2.188654956
H	 -1.027095279	 3.093872708	 -3.270782956
N	 -2.317530028	 3.130825171	 0.060530504
C	 -3.483616028	 2.241814171	 0.135560504
C	 -2.852544028	 0.853678171	 -0.014191496
C	 -1.417219028	 1.024443171	 0.539923504
C	 -1.346586028	 2.496065171	 0.960569504
H	 -4.197769028	 2.473160171	 -0.652051496
H	 -3.992932028	 2.322687171	 1.103909504
H	 -3.421734028	 0.098361171	 0.522236504
H	 -2.815965028	 0.572836171	 -1.063265496
H	 -1.209304028	 0.361583171	 1.376358504
H	 -0.689724028	 0.825799171	 -0.242418496
H	 -1.639497028	 2.602685171	 2.012461504
H	 -0.357341028	 2.930067171	 0.830557504
H	 -2.549468028	 4.066960171	 0.372824504
