17
0  1  0  1  0  1   3  14 -4.34395 -4.07581 -4.10132 -4.36945 -4.17074 -4.29033 -1.80979 -1.81673 -1.82790 -4.36707 -5.61043  5.77088 -1.48244 -3.04509
O	 -0.608790487	 2.826012391	 -2.638991092
H	 -0.948859487	 2.734084391	 -1.729833092
H	 -0.654094487	 3.767464391	 -2.811961092
N	 -2.983179097	 1.932928078	 -0.753210618
C	 -3.810078097	 1.120456078	 -1.654240618
C	 -2.829748097	 0.038372078	 -2.118619618
C	 -1.818906097	 -0.087415922	 -0.952970618
C	 -2.305052097	 0.933175078	 0.081272382
H	 -4.198562097	 1.723779078	 -2.472133618
H	 -4.655371097	 0.662573078	 -1.125595618
H	 -3.341841097	 -0.896761922	 -2.331973618
H	 -2.318922097	 0.361845078	 -3.021497618
H	 -1.783716097	 -1.090652922	 -0.535223618
H	 -0.821494097	 0.175504078	 -1.294745618
H	 -2.997940097	 0.456328078	 0.785662382
H	 -1.493899097	 1.387218078	 0.646729382
H	 -3.554553097	 2.553305078	 -0.190773618
