17
0  1  0  1  0  1   3  14  5.13485  5.98875  5.64692  4.79302  5.52376  5.08483 12.71449 12.70145 12.66240  6.08949 -14.65215 33.29366 -4.22489 -8.32713
O	 -0.883366864	 0.917724735	 -2.971886406
H	 -1.244504864	 1.320459735	 -2.160683406
H	 -0.744545864	 1.660967735	 -3.560632406
N	 -2.164325686	 1.711689973	 0.101052059
C	 -3.154085686	 0.681262973	 -0.237064941
C	 -2.320367686	 -0.332932026	 -1.026952941
C	 -0.885044686	 -0.162161026	 -0.472835941
C	 -1.017057686	 0.935523974	 0.587948059
H	 -3.971513686	 1.105356974	 -0.816567941
H	 -3.570725686	 0.209493974	 0.661538059
H	 -2.700583686	 -1.343809026	 -0.901259941
H	 -2.342570686	 -0.088758026	 -2.085561941
H	 -0.488155686	 -1.080579027	 -0.047133941
H	 -0.216330686	 0.164213974	 -1.264712941
H	 -1.217293686	 0.489502974	 1.570095059
H	 -0.131090686	 1.562283974	 0.666048059
H	 -2.515513686	 2.336114973	 0.818291059
