17
0  1  0  1  0  1   3  14 -3.08614 -2.96347 -2.96273 -3.08540 -3.00313 -3.05131 -1.76614 -1.76951 -1.77097 -3.12858 -2.58829  1.51745 -0.52588 -1.53186
O	 -0.608790487	 2.826012391	 -2.638991092
H	 -0.948859487	 2.734084391	 -1.729833092
H	 -0.654094487	 3.767464391	 -2.811961092
N	 -3.364614024	 1.782711270	 -0.570093905
C	 -4.191513024	 0.970239270	 -1.471123905
C	 -3.211183024	 -0.111844730	 -1.935502905
C	 -2.200341024	 -0.237632730	 -0.769853905
C	 -2.686487024	 0.782958270	 0.264389095
H	 -4.579997024	 1.573562270	 -2.289016905
H	 -5.036806024	 0.512356270	 -0.942478905
H	 -3.723276024	 -1.046978730	 -2.148856905
H	 -2.700357024	 0.211628270	 -2.838380905
H	 -2.165151024	 -1.240869730	 -0.352106905
H	 -1.202929024	 0.025287270	 -1.111628905
H	 -3.379375024	 0.306111270	 0.968779095
H	 -1.875334024	 1.237001270	 0.829846095
H	 -3.935988024	 2.403088270	 -0.007656905
