16
0  1  0  1  0  1  13   3 -1.71706 -1.46004 -1.43836 -1.69537 -1.48161 -1.61033  0.66749  0.66957  0.65739 -1.53431 -4.20029  6.55092 -1.09456 -2.79038
C	 -4.240572755	 0.549947248	 0.569255899
C	 -3.468334755	 1.580712248	 1.100611899
C	 -2.100063755	 1.632933248	 0.850244899
C	 -1.508440755	 0.646603248	 0.062191899
C	 -2.269521755	 -0.386740752	 -0.474979101
C	 -3.637300755	 -0.428947752	 -0.215673101
O	 -4.353229755	 -1.469190752	 -0.761302101
H	 -5.305411755	 0.507829248	 0.765191899
H	 -3.941113755	 2.339119248	 1.709171899
H	 -1.502021755	 2.432693248	 1.262791899
H	 -0.446897755	 0.679480248	 -0.140563101
H	 -1.824974755	 -1.154980752	 -1.092300101
H	 -5.281886755	 -1.345296752	 -0.539586101
O	 -1.947366000	 -1.845634000	 -3.286979000
H	 -1.673578000	 -2.760032000	 -3.373719000
H	 -2.708093000	 -1.888409000	 -2.697298000
