16
0  1  0  1  0  1  13   3 -0.55572 -0.17070 -0.20413 -0.58914 -0.25355 -0.45801  2.59702  2.59684  2.57208 -0.22039 -6.20033 11.76628 -1.93265 -3.85370
C	 -4.204841499	 0.678116850	 0.246884293
C	 -3.432603499	 1.708881850	 0.778240293
C	 -2.064332499	 1.761102850	 0.527873293
C	 -1.472709499	 0.774772850	 -0.260179707
C	 -2.233790499	 -0.258571150	 -0.797350707
C	 -3.601569499	 -0.300778150	 -0.538044707
O	 -4.317498499	 -1.341021150	 -1.083673707
H	 -5.269680499	 0.635998850	 0.442820293
H	 -3.905382499	 2.467288850	 1.386800293
H	 -1.466290499	 2.560862850	 0.940420293
H	 -0.411166499	 0.807649850	 -0.462934707
H	 -1.789243499	 -1.026811150	 -1.414671707
H	 -5.246155499	 -1.217127150	 -0.861957707
O	 -1.475470000	 -3.033122000	 -1.666760000
H	 -1.461408000	 -3.862551000	 -1.186701000
H	 -2.379850000	 -2.719476000	 -1.557292000
