16
0  1  0  1  0  1  13   3 -1.56209 -1.46765 -1.42592 -1.52036 -1.45343 -1.49143 -0.47241 -0.46985 -0.46822 -1.49169 -1.40113  1.43825 -0.29715 -1.23166
C	 -4.606158701	 0.643106859	 0.999477210
C	 -3.833920701	 1.673871859	 1.530833210
C	 -2.465649701	 1.726092859	 1.280466210
C	 -1.874026701	 0.739762859	 0.492413210
C	 -2.635107701	 -0.293581141	 -0.044757790
C	 -4.002886701	 -0.335788141	 0.214548210
O	 -4.718815701	 -1.376031141	 -0.331080790
H	 -5.670997701	 0.600988859	 1.195413210
H	 -4.306699701	 2.432278859	 2.139393210
H	 -1.867607701	 2.525852859	 1.693013210
H	 -0.812483701	 0.772639859	 0.289658210
H	 -2.190560701	 -1.061821141	 -0.662078790
H	 -5.647472701	 -1.252137141	 -0.109364790
O	 -1.947366000	 -1.845634000	 -3.286979000
H	 -1.673578000	 -2.760032000	 -3.373719000
H	 -2.708093000	 -1.888409000	 -2.697298000
