16
0  1  0  1  0  1  13   3 -0.83282 -0.34384 -0.37227 -0.86126 -0.42916 -0.69096  2.81693  2.81698  2.78854 -0.48654 -10.06792 17.41800 -2.99397 -4.84265
C	 -1.409837924	 0.585786755	 -0.458429274
C	 -0.182964924	 1.234693755	 -0.336492274
C	 0.953334076	 0.706480755	 -0.942619274
C	 0.854016076	 -0.476249245	 -1.674177274
C	 -0.365893924	 -1.132399245	 -1.804114274
C	 -1.495219924	 -0.594800245	 -1.191376274
O	 -2.680936924	 -1.276238245	 -1.340000274
H	 -2.294364924	 0.995574755	 0.014574726
H	 -0.121385924	 2.151600755	 0.233188726
H	 1.904351076	 1.210440755	 -0.847453274
H	 1.730072076	 -0.893455245	 -2.151177274
H	 -0.458537924	 -2.047117245	 -2.372981274
H	 -3.376135924	 -0.769973245	 -0.907211274
O	 -2.341672000	 -3.288684000	 -2.915345000
H	 -2.385408000	 -4.203640000	 -2.633299000
H	 -3.022192000	 -2.853487000	 -2.390220000
