16
0  1  0  1  0  1  13   3 -2.79334 -2.56384 -2.52939 -2.75889 -2.56841 -2.68131 -0.82010 -0.81573 -0.82233 -2.72300 -4.41395  5.34092 -1.08786 -2.56211
C	 -1.345852597	 0.881520897	 -0.261513075
C	 -0.118979597	 1.530427897	 -0.139576075
C	 1.017319403	 1.002214897	 -0.745703075
C	 0.918001403	 -0.180515103	 -1.477261075
C	 -0.301908597	 -0.836665103	 -1.607198075
C	 -1.431234597	 -0.299066103	 -0.994460075
O	 -2.616951597	 -0.980504103	 -1.143084075
H	 -2.230379597	 1.291308897	 0.211490925
H	 -0.057400597	 2.447334897	 0.430104925
H	 1.968336403	 1.506174897	 -0.650537075
H	 1.794057403	 -0.597721103	 -1.954261075
H	 -0.394552597	 -1.751383103	 -2.176065075
H	 -3.312150597	 -0.474239103	 -0.710295075
O	 -2.341672000	 -3.288684000	 -2.915345000
H	 -2.385408000	 -4.203640000	 -2.633299000
H	 -3.022192000	 -2.853487000	 -2.390220000
