16
0  1  0  1  0  1  13   3 -3.67697 -3.41058 -3.40239 -3.66878 -3.44826 -3.58752 -1.93319 -1.93932 -1.96722 -3.34135 -5.71474  6.78829 -1.94880 -2.46609
C	 -3.891633115	 0.406151548	 0.155339306
C	 -3.119395115	 1.436916548	 0.686695306
C	 -1.751124115	 1.489137548	 0.436328306
C	 -1.159501115	 0.502807548	 -0.351724694
C	 -1.920582115	 -0.530536452	 -0.888895694
C	 -3.288361115	 -0.572743452	 -0.629589694
O	 -4.004290115	 -1.612986452	 -1.175218694
H	 -4.956472115	 0.364033548	 0.351275306
H	 -3.592174115	 2.195323548	 1.295255306
H	 -1.153082115	 2.288897548	 0.848875306
H	 -0.097958115	 0.535684548	 -0.554479694
H	 -1.476035115	 -1.298776452	 -1.506216694
H	 -4.932947115	 -1.489092452	 -0.953502694
O	 -3.146294000	 -4.269156000	 -2.039423000
H	 -3.458000000	 -4.941458000	 -1.431593000
H	 -3.602807000	 -3.470613000	 -1.752746000
