16
0  1  0  1  0  1  13   3 -3.60093 -3.33726 -3.32309 -3.58675 -3.36634 -3.50635 -1.85261 -1.85759 -1.88743 -3.26528 -5.71271  6.86789 -1.96105 -2.45942
C	 -3.901584130	 0.431346205	 0.120778914
C	 -3.129346130	 1.462111205	 0.652134914
C	 -1.761075130	 1.514332205	 0.401767914
C	 -1.169452130	 0.528002205	 -0.386285086
C	 -1.930533130	 -0.505341795	 -0.923456086
C	 -3.298312130	 -0.547548795	 -0.664150086
O	 -4.014241130	 -1.587791795	 -1.209779086
H	 -4.966423130	 0.389228205	 0.316714914
H	 -3.602125130	 2.220518205	 1.260694914
H	 -1.163033130	 2.314092205	 0.814314914
H	 -0.107909130	 0.560879205	 -0.589040086
H	 -1.485986130	 -1.273581795	 -1.540777086
H	 -4.942898130	 -1.463897795	 -0.988063086
O	 -3.632949000	 -3.037621000	 -3.717937000
H	 -3.822931000	 -3.970076000	 -3.603732000
H	 -3.931050000	 -2.639545000	 -2.892751000
