16
0  1  0  1  0  1  13   3 -3.02721 -2.87370 -2.86694 -3.02045 -2.90281 -2.97277 -1.61460 -1.61376 -1.61838 -2.92598 -2.83009  2.20028 -0.58957 -1.70660
C	 -4.234972665	 1.623285881	 -2.227662169
C	 -3.492599665	 2.775873881	 -1.979487169
C	 -2.109275665	 2.703433881	 -1.842583169
C	 -1.471997665	 1.468687881	 -1.957349169
C	 -2.202545665	 0.311170881	 -2.206445169
C	 -3.586321665	 0.396496881	 -2.339584169
O	 -4.272258665	 -0.771274119	 -2.580774169
H	 -5.311978665	 1.678798881	 -2.332649169
H	 -4.000434665	 3.726569881	 -1.893882169
H	 -1.534429665	 3.597842881	 -1.650099169
H	 -0.397656665	 1.401924881	 -1.855376169
H	 -1.720952665	 -0.651937119	 -2.303356169
H	 -5.203736665	 -0.556025119	 -2.694478169
O	 -2.341672000	 -3.288684000	 -2.915345000
H	 -2.385408000	 -4.203640000	 -2.633299000
H	 -3.022192000	 -2.853487000	 -2.390220000
