16
0  1  0  1  0  1  13   3  4.81499  5.79487  5.42520  4.44532  5.33353  4.79695 10.23485 10.21982 10.16512  5.55061 -24.55816 52.27509 -13.37287 -8.79345
C	 -3.603490270	 0.071652460	 -0.199373051
C	 -2.831252270	 1.102417460	 0.331982949
C	 -1.462981270	 1.154638460	 0.081615949
C	 -0.871358270	 0.168308460	 -0.706437051
C	 -1.632439270	 -0.865035540	 -1.243608051
C	 -3.000218270	 -0.907242540	 -0.984302051
O	 -3.716147270	 -1.947485540	 -1.529931051
H	 -4.668329270	 0.029534460	 -0.003437051
H	 -3.304031270	 1.860824460	 0.940542949
H	 -0.864939270	 1.954398460	 0.494162949
H	 0.190184730	 0.201185460	 -0.909192051
H	 -1.187892270	 -1.633275540	 -1.860929051
H	 -4.644804270	 -1.823591540	 -1.308215051
O	 -2.341672000	 -3.288684000	 -2.915345000
H	 -2.385408000	 -4.203640000	 -2.633299000
H	 -3.022192000	 -2.853487000	 -2.390220000
