16
0  1  0  1  0  1  13   3 -1.51308 -1.38001 -1.33024 -1.46332 -1.35862 -1.41966 -0.14402 -0.14124 -0.14245 -1.38649 -1.76288  2.46157 -0.46553 -1.61965
C	 -4.689253623	 1.022730562	 0.365288866
C	 -3.917015623	 2.053495562	 0.896644866
C	 -2.548744623	 2.105716562	 0.646277866
C	 -1.957121623	 1.119386562	 -0.141775134
C	 -2.718202623	 0.086042562	 -0.678946134
C	 -4.085981623	 0.043835562	 -0.419640134
O	 -4.801910623	 -0.996407438	 -0.965269134
H	 -5.754092623	 0.980612562	 0.561224866
H	 -4.389794623	 2.811902562	 1.505204866
H	 -1.950702623	 2.905476562	 1.058824866
H	 -0.895578623	 1.152263562	 -0.344530134
H	 -2.273655623	 -0.682197438	 -1.296267134
H	 -5.730567623	 -0.872513438	 -0.743553134
O	 -1.475470000	 -3.033122000	 -1.666760000
H	 -1.461408000	 -3.862551000	 -1.186701000
H	 -2.379850000	 -2.719476000	 -1.557292000
