16
0  1  0  1  0  1  13   3 -1.69810 -1.57718 -1.53431 -1.65523 -1.56507 -1.61719 -0.36988 -0.36686 -0.36686 -1.60995 -1.82145  2.12951 -0.40723 -1.51078
C	 -4.514762215	 0.619816956	 0.891921882
C	 -3.742524215	 1.650581956	 1.423277882
C	 -2.374253215	 1.702802956	 1.172910882
C	 -1.782630215	 0.716472956	 0.384857882
C	 -2.543711215	 -0.316871044	 -0.152313118
C	 -3.911490215	 -0.359078044	 0.106992882
O	 -4.627419215	 -1.399321044	 -0.438636118
H	 -5.579601215	 0.577698956	 1.087857882
H	 -4.215303215	 2.408988956	 2.031837882
H	 -1.776211215	 2.502562956	 1.585457882
H	 -0.721087215	 0.749349956	 0.182102882
H	 -2.099164215	 -1.085111044	 -0.769634118
H	 -5.556076215	 -1.275427044	 -0.216920118
O	 -1.947366000	 -1.845634000	 -3.286979000
H	 -1.673578000	 -2.760032000	 -3.373719000
H	 -2.708093000	 -1.888409000	 -2.697298000
