16
0  1  0  1  0  1  13   3  1.79352  2.46375  2.29754  1.62731  2.22923  1.85959  6.82949  6.82381  6.77248  2.25260 -13.19396 26.11849 -4.35029 -6.32163
C	 -3.874986810	 0.456787637	 0.139034588
C	 -3.102748810	 1.487552637	 0.670390588
C	 -1.734477810	 1.539773637	 0.420023588
C	 -1.142854810	 0.553443637	 -0.368029412
C	 -1.903935810	 -0.479900363	 -0.905200412
C	 -3.271714810	 -0.522107363	 -0.645894412
O	 -3.987643810	 -1.562350363	 -1.191523412
H	 -4.939825810	 0.414669637	 0.334970588
H	 -3.575527810	 2.245959637	 1.278950588
H	 -1.136435810	 2.339533637	 0.832570588
H	 -0.081311810	 0.586320637	 -0.570784412
H	 -1.459388810	 -1.248140363	 -1.522521412
H	 -4.916300810	 -1.438456363	 -0.969807412
O	 -1.947366000	 -1.845634000	 -3.286979000
H	 -1.673578000	 -2.760032000	 -3.373719000
H	 -2.708093000	 -1.888409000	 -2.697298000
