16
0  1  0  1  0  1  13   3 -3.25897 -3.06801 -3.06378 -3.25475 -3.10388 -3.19500 -1.57426 -1.57347 -1.58273 -3.11290 -3.45379  3.18266 -0.79675 -2.04502
C	 -4.178151453	 1.528639841	 -2.219000616
C	 -3.435778453	 2.681227841	 -1.970825616
C	 -2.052454453	 2.608787841	 -1.833921616
C	 -1.415176453	 1.374041841	 -1.948687616
C	 -2.145724453	 0.216524841	 -2.197783616
C	 -3.529500453	 0.301850841	 -2.330922616
O	 -4.215437453	 -0.865920159	 -2.572112616
H	 -5.255157453	 1.584152841	 -2.323987616
H	 -3.943613453	 3.631923841	 -1.885220616
H	 -1.477608453	 3.503196841	 -1.641437616
H	 -0.340835453	 1.307278841	 -1.846714616
H	 -1.664131453	 -0.746583159	 -2.294694616
H	 -5.146915453	 -0.650671159	 -2.685816616
O	 -2.341672000	 -3.288684000	 -2.915345000
H	 -2.385408000	 -4.203640000	 -2.633299000
H	 -3.022192000	 -2.853487000	 -2.390220000
