16
0  1  0  1  0  1  13   3 -3.16671 -2.79933 -2.83941 -3.20680 -2.89372 -3.08742 -0.30300 -0.30380 -0.33390 -2.74168 -6.73164  9.64360 -2.07952 -3.57413
C	 -4.007687817	 1.244701721	 -2.193015956
C	 -3.265314817	 2.397289721	 -1.944840956
C	 -1.881990817	 2.324849721	 -1.807936956
C	 -1.244712817	 1.090103721	 -1.922702956
C	 -1.975260817	 -0.067413279	 -2.171798956
C	 -3.359036817	 0.017912721	 -2.304937956
O	 -4.044973817	 -1.149858279	 -2.546127956
H	 -5.084693817	 1.300214721	 -2.298002956
H	 -3.773149817	 3.347985721	 -1.859235956
H	 -1.307144817	 3.219258721	 -1.615452956
H	 -0.170371817	 1.023340721	 -1.820729956
H	 -1.493667817	 -1.030521279	 -2.268709956
H	 -4.976451817	 -0.934609279	 -2.659831956
O	 -2.341672000	 -3.288684000	 -2.915345000
H	 -2.385408000	 -4.203640000	 -2.633299000
H	 -3.022192000	 -2.853487000	 -2.390220000
