16
0  1  0  1  0  1  13   3  5.05640  5.85590  5.65908  4.85958  5.58466  5.14684 10.57589 10.56858 10.52440  5.67600 -18.54501 37.88082 -6.19210 -7.46770
C	 -1.452494808	 0.388630661	 -0.589706739
C	 -0.225621808	 1.037537661	 -0.467769739
C	 0.910677192	 0.509324661	 -1.073896739
C	 0.811359192	 -0.673405339	 -1.805454739
C	 -0.408550808	 -1.329555339	 -1.935391739
C	 -1.537876808	 -0.791956339	 -1.322653739
O	 -2.723593808	 -1.473394339	 -1.471277739
H	 -2.337021808	 0.798418661	 -0.116702739
H	 -0.164042808	 1.954444661	 0.101911261
H	 1.861694192	 1.013284661	 -0.978730739
H	 1.687415192	 -1.090611339	 -2.282454739
H	 -0.501194808	 -2.244273339	 -2.504258739
H	 -3.418792808	 -0.967129339	 -1.038488739
O	 -2.341672000	 -3.288684000	 -2.915345000
H	 -2.385408000	 -4.203640000	 -2.633299000
H	 -3.022192000	 -2.853487000	 -2.390220000
