16
0  1  0  1  0  1  13   3 -2.60064 -2.30429 -2.27683 -2.57319 -2.32085 -2.47228 -0.18115 -0.17723 -0.19037 -2.46884 -5.72987  7.93218 -1.50889 -3.16226
C	 -1.367181039	 0.782942850	 -0.327151808
C	 -0.140308039	 1.431849850	 -0.205214808
C	 0.995990961	 0.903636850	 -0.811341808
C	 0.896672961	 -0.279093150	 -1.542899808
C	 -0.323237039	 -0.935243150	 -1.672836808
C	 -1.452563039	 -0.397644150	 -1.060098808
O	 -2.638280039	 -1.079082150	 -1.208722808
H	 -2.251708039	 1.192730850	 0.145852192
H	 -0.078729039	 2.348756850	 0.364466192
H	 1.947007961	 1.407596850	 -0.716175808
H	 1.772728961	 -0.696299150	 -2.019899808
H	 -0.415881039	 -1.849961150	 -2.241703808
H	 -3.333479039	 -0.572817150	 -0.775933808
O	 -2.341672000	 -3.288684000	 -2.915345000
H	 -2.385408000	 -4.203640000	 -2.633299000
H	 -3.022192000	 -2.853487000	 -2.390220000
