16
0  1  0  1  0  1  13   3 -3.46417 -3.13529 -3.14693 -3.47582 -3.19989 -3.37299 -1.36981 -1.37832 -1.41049 -3.01266 -7.13842  9.84677 -2.71140 -3.00962
C	 -3.870502425	 0.308381730	 0.124943132
C	 -3.098264425	 1.339146730	 0.656299132
C	 -1.729993425	 1.391367730	 0.405932132
C	 -1.138370425	 0.405037730	 -0.382120868
C	 -1.899451425	 -0.628306270	 -0.919291868
C	 -3.267230425	 -0.670513270	 -0.659985868
O	 -3.983159425	 -1.710756270	 -1.205614868
H	 -4.935341425	 0.266263730	 0.320879132
H	 -3.571043425	 2.097553730	 1.264859132
H	 -1.131951425	 2.191127730	 0.818479132
H	 -0.076827425	 0.437914730	 -0.584875868
H	 -1.454904425	 -1.396546270	 -1.536612868
H	 -4.911816425	 -1.586862270	 -0.983898868
O	 -3.146294000	 -4.269156000	 -2.039423000
H	 -3.458000000	 -4.941458000	 -1.431593000
H	 -3.602807000	 -3.470613000	 -1.752746000
