16
0  1  0  1  0  1  13   3  3.89293  4.73648  4.65455  3.81100  4.57574  4.11430  8.90299  8.89493  8.84913  4.33262 -20.97417 40.54376 -7.57820 -7.65878
C	 -2.900746129	 -1.427196146	 1.176869180
C	 -2.020971129	 -0.619448146	 1.894299180
C	 -0.774614129	 -0.296825146	 1.365067180
C	 -0.413947129	 -0.786918146	 0.110626180
C	 -1.284570129	 -1.593189146	 -0.615691820
C	 -2.528082129	 -1.910405146	 -0.074496820
O	 -3.357558129	 -2.713727146	 -0.822169820
H	 -3.870394129	 -1.680056146	 1.589047180
H	 -2.314758129	 -0.245934146	 2.865495180
H	 -0.093017129	 0.329642854	 1.922226180
H	 0.550736871	 -0.539994146	 -0.310654820
H	 -1.020251129	 -1.975510146	 -1.591840820
H	 -4.190587129	 -2.810327146	 -0.349260820
O	 -2.341672000	 -3.288684000	 -2.915345000
H	 -2.385408000	 -4.203640000	 -2.633299000
H	 -3.022192000	 -2.853487000	 -2.390220000
