16
0  1  0  1  0  1  13   3 -1.52695 -1.35199 -1.30806 -1.48301 -1.34063 -1.42506  0.16825  0.17086  0.16584 -1.36241 -2.39257  3.70009 -0.65795 -2.01198
C	 -4.568150592	 0.936577134	 0.335687723
C	 -3.795912592	 1.967342134	 0.867043723
C	 -2.427641592	 2.019563134	 0.616676723
C	 -1.836018592	 1.033233134	 -0.171376277
C	 -2.597099592	 -0.000110866	 -0.708547277
C	 -3.964878592	 -0.042317866	 -0.449241277
O	 -4.680807592	 -1.082560866	 -0.994870277
H	 -5.632989592	 0.894459134	 0.531623723
H	 -4.268691592	 2.725749134	 1.475603723
H	 -1.829599592	 2.819323134	 1.029223723
H	 -0.774475592	 1.066110134	 -0.374131277
H	 -2.152552592	 -0.768350866	 -1.325868277
H	 -5.609464592	 -0.958666866	 -0.773154277
O	 -1.475470000	 -3.033122000	 -1.666760000
H	 -1.461408000	 -3.862551000	 -1.186701000
H	 -2.379850000	 -2.719476000	 -1.557292000
