16
0  1  0  1  0  1  13   3 -4.32613 -3.87247 -3.91939 -4.37306 -3.98008 -4.22514 -1.40267 -1.40411 -1.44646 -3.82497 -9.70232 13.60484 -3.53722 -4.19027
C	 -3.801763204	 0.330510020	 0.046423791
C	 -3.029525204	 1.361275020	 0.577779791
C	 -1.661254204	 1.413496020	 0.327412791
C	 -1.069631204	 0.427166020	 -0.460640209
C	 -1.830712204	 -0.606177980	 -0.997811209
C	 -3.198491204	 -0.648384980	 -0.738505209
O	 -3.914420204	 -1.688627980	 -1.284134209
H	 -4.866602204	 0.288392020	 0.242359791
H	 -3.502304204	 2.119682020	 1.186339791
H	 -1.063212204	 2.213256020	 0.739959791
H	 -0.008088204	 0.460043020	 -0.663395209
H	 -1.386165204	 -1.374417980	 -1.615132209
H	 -4.843077204	 -1.564733980	 -1.062418209
O	 -2.341672000	 -3.288684000	 -2.915345000
H	 -2.385408000	 -4.203640000	 -2.633299000
H	 -3.022192000	 -2.853487000	 -2.390220000
