16
0  1  0  1  0  1  13   3  3.18005  3.91165  3.80402  3.07242  3.71473  3.32948  7.83722  7.82640  7.79341  4.02004 -13.97503 31.34715 -6.70154 -6.65054
C	 -5.614617644	 -1.045784606	 -0.432439178
C	 -5.503761644	 0.090206394	 0.366561822
C	 -4.265027644	 0.695959394	 0.556764822
C	 -3.136136644	 0.158080394	 -0.059825178
C	 -3.234665644	 -0.975048606	 -0.861017178
C	 -4.479434644	 -1.573060606	 -1.042050178
O	 -4.533490644	 -2.694012606	 -1.837610178
H	 -6.578325644	 -1.518739606	 -0.579505178
H	 -6.388070644	 0.496615394	 0.837596822
H	 -4.180072644	 1.576891394	 1.176609822
H	 -2.169716644	 0.622572394	 0.079252822
H	 -2.368657644	 -1.399499606	 -1.349659178
H	 -5.453328644	 -2.969154606	 -1.909074178
O	 -2.341672000	 -3.288684000	 -2.915345000
H	 -2.385408000	 -4.203640000	 -2.633299000
H	 -3.022192000	 -2.853487000	 -2.390220000
