16
0  1  0  1  0  1  13   3 -3.23137 -3.09519 -3.07243 -3.20861 -3.10140 -3.16730 -2.23921 -2.24009 -2.24937 -3.11539 -3.16587  2.19609 -0.76259 -1.38301
C	 -3.955025186	 0.699461003	 0.246527828
C	 -3.182787186	 1.730226003	 0.777883828
C	 -1.814516186	 1.782447003	 0.527516828
C	 -1.222893186	 0.796117003	 -0.260536172
C	 -1.983974186	 -0.237226997	 -0.797707172
C	 -3.351753186	 -0.279433997	 -0.538401172
O	 -4.067682186	 -1.319676997	 -1.084030172
H	 -5.019864186	 0.657343003	 0.442463828
H	 -3.655566186	 2.488633003	 1.386443828
H	 -1.216474186	 2.582207003	 0.940063828
H	 -0.161350186	 0.828994003	 -0.463291172
H	 -1.539427186	 -1.005466997	 -1.415028172
H	 -4.996339186	 -1.195782997	 -0.862314172
O	 -3.146294000	 -4.269156000	 -2.039423000
H	 -3.458000000	 -4.941458000	 -1.431593000
H	 -3.602807000	 -3.470613000	 -1.752746000
