16
0  1  0  1  0  1  13   3 -2.28291 -2.01385 -1.92225 -2.19130 -1.98105 -2.11021 -0.08377 -0.08849 -0.10653 -1.97250 -3.54371  5.65765 -1.36404 -2.72240
C	 -6.154367160	 -0.988829466	 -0.235078528
C	 -6.043511160	 0.147161534	 0.563922472
C	 -4.804777160	 0.752914534	 0.754125472
C	 -3.675886160	 0.215035534	 0.137535472
C	 -3.774415160	 -0.918093466	 -0.663656528
C	 -5.019184160	 -1.516105466	 -0.844689528
O	 -5.073240160	 -2.637057466	 -1.640249528
H	 -7.118075160	 -1.461784466	 -0.382144528
H	 -6.927820160	 0.553570534	 1.034957472
H	 -4.719822160	 1.633846534	 1.373970472
H	 -2.709466160	 0.679527534	 0.276613472
H	 -2.908407160	 -1.342544466	 -1.152298528
H	 -5.993078160	 -2.912199466	 -1.711713528
O	 -2.341672000	 -3.288684000	 -2.915345000
H	 -2.385408000	 -4.203640000	 -2.633299000
H	 -3.022192000	 -2.853487000	 -2.390220000
