16
0  1  0  1  0  1  13   3 -4.65387 -4.34635 -4.34190 -4.64942 -4.39019 -4.55241 -2.53893 -2.53682 -2.56610 -4.36984 -6.45001  6.92315 -1.90385 -2.93913
C	 -3.900899671	 0.459938800	 0.169322213
C	 -3.128661671	 1.490703800	 0.700678213
C	 -1.760390671	 1.542924800	 0.450311213
C	 -1.168767671	 0.556594800	 -0.337741787
C	 -1.929848671	 -0.476749200	 -0.874912787
C	 -3.297627671	 -0.518956200	 -0.615606787
O	 -4.013556671	 -1.559199200	 -1.161235787
H	 -4.965738671	 0.417820800	 0.365258213
H	 -3.601440671	 2.249110800	 1.309238213
H	 -1.162348671	 2.342684800	 0.862858213
H	 -0.107224671	 0.589471800	 -0.540496787
H	 -1.485301671	 -1.244989200	 -1.492233787
H	 -4.942213671	 -1.435305200	 -0.939519787
O	 -2.341672000	 -3.288684000	 -2.915345000
H	 -2.385408000	 -4.203640000	 -2.633299000
H	 -3.022192000	 -2.853487000	 -2.390220000
