16
0  1  0  1  0  1  13   3 -2.60619 -2.46835 -2.43772 -2.57556 -2.46847 -2.52963 -1.28643 -1.28328 -1.28149 -2.59857 -2.73636  2.41564 -0.58246 -1.69540
C	 -1.303195713	 1.078676992	 -0.130235609
C	 -0.076322713	 1.727583992	 -0.008298609
C	 1.059976287	 1.199370992	 -0.614425609
C	 0.960658287	 0.016640992	 -1.345983609
C	 -0.259251713	 -0.639509008	 -1.475920609
C	 -1.388577713	 -0.101910008	 -0.863182609
O	 -2.574294713	 -0.783348008	 -1.011806609
H	 -2.187722713	 1.488464992	 0.342768391
H	 -0.014743713	 2.644490992	 0.561382391
H	 2.010993287	 1.703330992	 -0.519259609
H	 1.836714287	 -0.400565008	 -1.822983609
H	 -0.351895713	 -1.554227008	 -2.044787609
H	 -3.269493713	 -0.277083008	 -0.579017609
O	 -2.341672000	 -3.288684000	 -2.915345000
H	 -2.385408000	 -4.203640000	 -2.633299000
H	 -3.022192000	 -2.853487000	 -2.390220000
