16
0  1  0  1  0  1  13   3 -2.24491 -2.02802 -1.93158 -2.14847 -1.98340 -2.08379 -0.35100 -0.35391 -0.36567 -1.99967 -2.75099  4.10603 -1.04808 -2.30663
C	 -6.262317063	 -0.977438438	 -0.195606398
C	 -6.151461063	 0.158552562	 0.603394602
C	 -4.912727063	 0.764305562	 0.793597602
C	 -3.783836063	 0.226426562	 0.177007602
C	 -3.882365063	 -0.906702438	 -0.624184398
C	 -5.127134063	 -1.504714438	 -0.805217398
O	 -5.181190063	 -2.625666438	 -1.600777398
H	 -7.226025063	 -1.450393438	 -0.342672398
H	 -7.035770063	 0.564961562	 1.074429602
H	 -4.827772063	 1.645237562	 1.413442602
H	 -2.817416063	 0.690918562	 0.316085602
H	 -3.016357063	 -1.331153438	 -1.112826398
H	 -6.101028063	 -2.900808438	 -1.672241398
O	 -2.341672000	 -3.288684000	 -2.915345000
H	 -2.385408000	 -4.203640000	 -2.633299000
H	 -3.022192000	 -2.853487000	 -2.390220000
