16
0  1  0  1  0  1  13   3 -4.49025 -4.23919 -4.22337 -4.47443 -4.26623 -4.39546 -2.69626 -2.69307 -2.71407 -4.28726 -5.34155  4.93776 -1.41214 -2.47133
C	 -3.950467905	 0.524653190	 0.230771423
C	 -3.178229905	 1.555418190	 0.762127423
C	 -1.809958905	 1.607639190	 0.511760423
C	 -1.218335905	 0.621309190	 -0.276292577
C	 -1.979416905	 -0.412034810	 -0.813463577
C	 -3.347195905	 -0.454241810	 -0.554157577
O	 -4.063124905	 -1.494484810	 -1.099786577
H	 -5.015306905	 0.482535190	 0.426707423
H	 -3.651008905	 2.313825190	 1.370687423
H	 -1.211916905	 2.407399190	 0.924307423
H	 -0.156792905	 0.654186190	 -0.479047577
H	 -1.534869905	 -1.180274810	 -1.430784577
H	 -4.991781905	 -1.370590810	 -0.878070577
O	 -2.341672000	 -3.288684000	 -2.915345000
H	 -2.385408000	 -4.203640000	 -2.633299000
H	 -3.022192000	 -2.853487000	 -2.390220000
