16
0  1  0  1  0  1  13   3 -3.64675 -3.43259 -3.41398 -3.62814 -3.45358 -3.56360 -2.19900 -2.20312 -2.22470 -3.40556 -4.63503  4.66903 -1.41246 -2.02710
C	 -3.912763805	 0.503921366	 0.185735480
C	 -3.140525805	 1.534686366	 0.717091480
C	 -1.772254805	 1.586907366	 0.466724480
C	 -1.180631805	 0.600577366	 -0.321328520
C	 -1.941712805	 -0.432766634	 -0.858499520
C	 -3.309491805	 -0.474973634	 -0.599193520
O	 -4.025420805	 -1.515216634	 -1.144822520
H	 -4.977602805	 0.461803366	 0.381671480
H	 -3.613304805	 2.293093366	 1.325651480
H	 -1.174212805	 2.386667366	 0.879271480
H	 -0.119088805	 0.633454366	 -0.524083520
H	 -1.497165805	 -1.201006634	 -1.475820520
H	 -4.954077805	 -1.391322634	 -0.923106520
O	 -3.146294000	 -4.269156000	 -2.039423000
H	 -3.458000000	 -4.941458000	 -1.431593000
H	 -3.602807000	 -3.470613000	 -1.752746000
