16
0  1  0  1  0  1  13   3 -1.15801 -0.59792 -0.73648 -1.29658 -0.80300 -1.10514  2.91074  2.90586  2.86606 -0.40265 -11.18134 20.16107 -4.12599 -5.25639
C	 -3.894045393	 1.055409641	 -2.175692850
C	 -3.151672393	 2.207997641	 -1.927517850
C	 -1.768348393	 2.135557641	 -1.790613850
C	 -1.131070393	 0.900811641	 -1.905379850
C	 -1.861618393	 -0.256705359	 -2.154475850
C	 -3.245394393	 -0.171379359	 -2.287614850
O	 -3.931331393	 -1.339150359	 -2.528804850
H	 -4.971051393	 1.110922641	 -2.280679850
H	 -3.659507393	 3.158693641	 -1.841912850
H	 -1.193502393	 3.029966641	 -1.598129850
H	 -0.056729393	 0.834048641	 -1.803406850
H	 -1.380025393	 -1.219813359	 -2.251386850
H	 -4.862809393	 -1.123901359	 -2.642508850
O	 -2.341672000	 -3.288684000	 -2.915345000
H	 -2.385408000	 -4.203640000	 -2.633299000
H	 -3.022192000	 -2.853487000	 -2.390220000
