16
0  1  0  1  0  1  13   3 -1.69789 -1.14695 -1.09787 -1.64880 -1.16004 -1.45865  1.78707  1.78848  1.75044 -1.34053 -12.19167 19.70108 -3.71448 -5.13546
C	 -2.948655576	 -1.407230452	 1.400876349
C	 -2.068880576	 -0.599482452	 2.118306349
C	 -0.822523576	 -0.276859452	 1.589074349
C	 -0.461856576	 -0.766952452	 0.334633349
C	 -1.332479576	 -1.573223452	 -0.391684651
C	 -2.575991576	 -1.890439452	 0.149510349
O	 -3.405467576	 -2.693761452	 -0.598162651
H	 -3.918303576	 -1.660090452	 1.813054349
H	 -2.362667576	 -0.225968452	 3.089502349
H	 -0.140926576	 0.349608548	 2.146233349
H	 0.502827424	 -0.520028452	 -0.086647651
H	 -1.068160576	 -1.955544452	 -1.367833651
H	 -4.238496576	 -2.790361452	 -0.125253651
O	 -2.341672000	 -3.288684000	 -2.915345000
H	 -2.385408000	 -4.203640000	 -2.633299000
H	 -3.022192000	 -2.853487000	 -2.390220000
