16
0  1  0  1  0  1  13   3 -1.30872 -1.23216 -1.18432 -1.26089 -1.20473 -1.23624 -0.42303 -0.41968 -0.41742 -1.23321 -0.99891  1.05574 -0.23907 -1.05097
C	 -4.931459686	 1.195037419	 0.424491152
C	 -4.159221686	 2.225802419	 0.955847152
C	 -2.790950686	 2.278023419	 0.705480152
C	 -2.199327686	 1.291693419	 -0.082572848
C	 -2.960408686	 0.258349419	 -0.619743848
C	 -4.328187686	 0.216142419	 -0.360437848
O	 -5.044116686	 -0.824100581	 -0.906066848
H	 -5.996298686	 1.152919419	 0.620427152
H	 -4.632000686	 2.984209419	 1.564407152
H	 -2.192908686	 3.077783419	 1.118027152
H	 -1.137784686	 1.324570419	 -0.285327848
H	 -2.515861686	 -0.509890581	 -1.237064848
H	 -5.972773686	 -0.700206581	 -0.684350848
O	 -1.475470000	 -3.033122000	 -1.666760000
H	 -1.461408000	 -3.862551000	 -1.186701000
H	 -2.379850000	 -2.719476000	 -1.557292000
