16
0  1  0  1  0  1  13   3 -1.60834 -1.11327 -1.20840 -1.70347 -1.27807 -1.53696  1.38369  1.36932  1.33861 -0.88213 -11.55465 20.56750 -5.37661 -4.51838
C	 -3.828241044	 0.112842093	 0.064150784
C	 -3.056003044	 1.143607093	 0.595506784
C	 -1.687732044	 1.195828093	 0.345139784
C	 -1.096109044	 0.209498093	 -0.442913216
C	 -1.857190044	 -0.823845907	 -0.980084216
C	 -3.224969044	 -0.866052907	 -0.720778216
O	 -3.940898044	 -1.906295907	 -1.266407216
H	 -4.893080044	 0.070724093	 0.260086784
H	 -3.528782044	 1.902014093	 1.204066784
H	 -1.089690044	 1.995588093	 0.757686784
H	 -0.034566044	 0.242375093	 -0.645668216
H	 -1.412643044	 -1.592085907	 -1.597405216
H	 -4.869555044	 -1.782401907	 -1.044691216
O	 -3.146294000	 -4.269156000	 -2.039423000
H	 -3.458000000	 -4.941458000	 -1.431593000
H	 -3.602807000	 -3.470613000	 -1.752746000
