16
0  1  0  1  0  1  13   3 -1.81656 -1.61655 -1.58188 -1.78189 -1.62023 -1.71652  0.14911  0.15208  0.14536 -1.67433 -3.16159  4.54428 -0.78247 -2.27455
C	 -4.331969242	 0.573237151	 0.676811227
C	 -3.559731242	 1.604002151	 1.208167227
C	 -2.191460242	 1.656223151	 0.957800227
C	 -1.599837242	 0.669893151	 0.169747227
C	 -2.360918242	 -0.363450849	 -0.367423773
C	 -3.728697242	 -0.405657849	 -0.108117773
O	 -4.444626242	 -1.445900849	 -0.653746773
H	 -5.396808242	 0.531119151	 0.872747227
H	 -4.032510242	 2.362409151	 1.816727227
H	 -1.593418242	 2.455983151	 1.370347227
H	 -0.538294242	 0.702770151	 -0.033007773
H	 -1.916371242	 -1.131690849	 -0.984744773
H	 -5.373283242	 -1.322006849	 -0.432030773
O	 -1.947366000	 -1.845634000	 -3.286979000
H	 -1.673578000	 -2.760032000	 -3.373719000
H	 -2.708093000	 -1.888409000	 -2.697298000
