16
0  1  0  1  0  1  13   3 -1.42920 -1.32818 -1.27777 -1.37880 -1.30212 -1.34598 -0.32670 -0.32367 -0.32256 -1.33137 -1.31576  1.62041 -0.33210 -1.30391
C	 -4.810356655	 1.108883990	 0.394890009
C	 -4.038118655	 2.139648990	 0.926246009
C	 -2.669847655	 2.191869990	 0.675879009
C	 -2.078224655	 1.205539990	 -0.112173991
C	 -2.839305655	 0.172195990	 -0.649344991
C	 -4.207084655	 0.129988990	 -0.390038991
O	 -4.923013655	 -0.910254010	 -0.935667991
H	 -5.875195655	 1.066765990	 0.590826009
H	 -4.510897655	 2.898055990	 1.534806009
H	 -2.071805655	 2.991629990	 1.088426009
H	 -1.016681655	 1.238416990	 -0.314928991
H	 -2.394758655	 -0.596044010	 -1.266665991
H	 -5.851670655	 -0.786360010	 -0.713951991
O	 -1.475470000	 -3.033122000	 -1.666760000
H	 -1.461408000	 -3.862551000	 -1.186701000
H	 -2.379850000	 -2.719476000	 -1.557292000
