16
0  1  0  1  0  1  13   3 -2.16639 -1.83429 -1.75404 -2.08614 -1.81971 -1.98441  0.38769  0.38134  0.35604 -1.77035 -4.59076  7.85025 -1.80522 -3.22461
C	 -6.046417257	 -1.000220494	 -0.274550658
C	 -5.935561257	 0.135770506	 0.524450342
C	 -4.696827257	 0.741523506	 0.714653342
C	 -3.567936257	 0.203644506	 0.098063342
C	 -3.666465257	 -0.929484494	 -0.703128658
C	 -4.911234257	 -1.527496494	 -0.884161658
O	 -4.965290257	 -2.648448494	 -1.679721658
H	 -7.010125257	 -1.473175494	 -0.421616658
H	 -6.819870257	 0.542179506	 0.995485342
H	 -4.611872257	 1.622455506	 1.334498342
H	 -2.601516257	 0.668136506	 0.237141342
H	 -2.800457257	 -1.353935494	 -1.191770658
H	 -5.885128257	 -2.923590494	 -1.751185658
O	 -2.341672000	 -3.288684000	 -2.915345000
H	 -2.385408000	 -4.203640000	 -2.633299000
H	 -3.022192000	 -2.853487000	 -2.390220000
