16
0  1  0  1  0  1  13   3 -1.48101 -0.99046 -1.07937 -1.56992 -1.14514 -1.40432  1.51220  1.49934  1.46711 -0.75279 -11.59004 20.75713 -5.40911 -4.51077
C	 -3.888448688	 0.265279910	 -0.144953493
C	 -3.116210688	 1.296044910	 0.386402507
C	 -1.747939688	 1.348265910	 0.136035507
C	 -1.156316688	 0.361935910	 -0.652017493
C	 -1.917397688	 -0.671408090	 -1.189188493
C	 -3.285176688	 -0.713615090	 -0.929882493
O	 -4.001105688	 -1.753858090	 -1.475511493
H	 -4.953287688	 0.223161910	 0.050982507
H	 -3.588989688	 2.054451910	 0.994962507
H	 -1.149897688	 2.148025910	 0.548582507
H	 -0.094773688	 0.394812910	 -0.854772493
H	 -1.472850688	 -1.439648090	 -1.806509493
H	 -4.929762688	 -1.629964090	 -1.253795493
O	 -3.632949000	 -3.037621000	 -3.717937000
H	 -3.822931000	 -3.970076000	 -3.603732000
H	 -3.931050000	 -2.639545000	 -2.892751000
