16
0  1  0  1  0  1  13   3 -3.41766 -3.24935 -3.22134 -3.38965 -3.25305 -3.33905 -2.21440 -2.21549 -2.23215 -3.24972 -3.79374  3.24859 -1.03936 -1.66520
C	 -3.910341091	 0.542057069	 0.297933853
C	 -3.138103091	 1.572822069	 0.829289853
C	 -1.769832091	 1.625043069	 0.578922853
C	 -1.178209091	 0.638713069	 -0.209130147
C	 -1.939290091	 -0.394630931	 -0.746301147
C	 -3.307069091	 -0.436837931	 -0.486995147
O	 -4.022998091	 -1.477080931	 -1.032624147
H	 -4.975180091	 0.499939069	 0.493869853
H	 -3.610882091	 2.331229069	 1.437849853
H	 -1.171790091	 2.424803069	 0.991469853
H	 -0.116666091	 0.671590069	 -0.411885147
H	 -1.494743091	 -1.162870931	 -1.363622147
H	 -4.951655091	 -1.353186931	 -0.810908147
O	 -3.632949000	 -3.037621000	 -3.717937000
H	 -3.822931000	 -3.970076000	 -3.603732000
H	 -3.931050000	 -2.639545000	 -2.892751000
