16
0  1  0  1  0  1  13   3 -3.61743 -3.38663 -3.30045 -3.53125 -3.33888 -3.45434 -1.94044 -1.93336 -1.94343 -3.54523 -4.80796  4.65604 -1.01381 -2.37951
C	 -3.044474470	 -1.367299065	 1.848890686
C	 -2.164699470	 -0.559551065	 2.566320686
C	 -0.918342470	 -0.236928065	 2.037088686
C	 -0.557675470	 -0.727021065	 0.782647686
C	 -1.428298470	 -1.533292065	 0.056329686
C	 -2.671810470	 -1.850508065	 0.597524686
O	 -3.501286470	 -2.653830065	 -0.150148314
H	 -4.014122470	 -1.620159065	 2.261068686
H	 -2.458486470	 -0.186037065	 3.537516686
H	 -0.236745470	 0.389539935	 2.594247686
H	 0.407008530	 -0.480097065	 0.361366686
H	 -1.163979470	 -1.915613065	 -0.919819314
H	 -4.334315470	 -2.750430065	 0.322760686
O	 -2.341672000	 -3.288684000	 -2.915345000
H	 -2.385408000	 -4.203640000	 -2.633299000
H	 -3.022192000	 -2.853487000	 -2.390220000
