16
0  1  0  1  0  1  13   3 -0.96772 -0.47202 -0.44729 -0.94298 -0.52544 -0.78191  2.47853  2.46977  2.43403 -0.34259 -7.87524 15.46145 -3.34491 -4.58389
C	 -5.830517450	 -1.023002550	 -0.353494918
C	 -5.719661450	 0.112988450	 0.445506082
C	 -4.480927450	 0.718741450	 0.635709082
C	 -3.352036450	 0.180862450	 0.019119082
C	 -3.450565450	 -0.952266550	 -0.782072918
C	 -4.695334450	 -1.550278550	 -0.963105918
O	 -4.749390450	 -2.671230550	 -1.758665918
H	 -6.794225450	 -1.495957550	 -0.500560918
H	 -6.603970450	 0.519397450	 0.916541082
H	 -4.395972450	 1.599673450	 1.255554082
H	 -2.385616450	 0.645354450	 0.158197082
H	 -2.584557450	 -1.376717550	 -1.270714918
H	 -5.669228450	 -2.946372550	 -1.830129918
O	 -2.341672000	 -3.288684000	 -2.915345000
H	 -2.385408000	 -4.203640000	 -2.633299000
H	 -3.022192000	 -2.853487000	 -2.390220000
