16
0  1  0  1  0  1  13   3 -1.79409 -1.63870 -1.59765 -1.75303 -1.63192 -1.70309 -0.17701 -0.17376 -0.17649 -1.68204 -2.39107  3.12473 -0.56256 -1.85314
C	 -4.423365728	 0.596527053	 0.784366555
C	 -3.651127728	 1.627292053	 1.315722555
C	 -2.282856728	 1.679513053	 1.065355554
C	 -1.691233728	 0.693183053	 0.277302555
C	 -2.452314728	 -0.340160947	 -0.259868445
C	 -3.820093728	 -0.382367947	 -0.000562445
O	 -4.536022728	 -1.422610947	 -0.546191445
H	 -5.488204728	 0.554409053	 0.980302555
H	 -4.123906728	 2.385699053	 1.924282554
H	 -1.684814728	 2.479273053	 1.477902554
H	 -0.629690728	 0.726060053	 0.074547555
H	 -2.007767728	 -1.108400947	 -0.877189445
H	 -5.464679728	 -1.298716947	 -0.324475445
O	 -1.947366000	 -1.845634000	 -3.286979000
H	 -1.673578000	 -2.760032000	 -3.373719000
H	 -2.708093000	 -1.888409000	 -2.697298000
