16
0  1  0  1  0  1  13   3 -3.41730 -3.12122 -3.13743 -3.43351 -3.18661 -3.33893 -1.01751 -1.01738 -1.04009 -3.11381 -5.32319  6.66446 -1.49629 -2.95880
C	 -4.064509029	 1.339347761	 -2.201677509
C	 -3.322136029	 2.491935761	 -1.953502509
C	 -1.938812029	 2.419495761	 -1.816598509
C	 -1.301534029	 1.184749761	 -1.931364509
C	 -2.032082029	 0.027232761	 -2.180460509
C	 -3.415858029	 0.112558761	 -2.313599509
O	 -4.101795029	 -1.055212239	 -2.554789509
H	 -5.141515029	 1.394860761	 -2.306664509
H	 -3.829971029	 3.442631761	 -1.867897509
H	 -1.363966029	 3.313904761	 -1.624114509
H	 -0.227193029	 1.117986761	 -1.829391509
H	 -1.550489029	 -0.935875239	 -2.277371509
H	 -5.033273029	 -0.839963239	 -2.668493509
O	 -2.341672000	 -3.288684000	 -2.915345000
H	 -2.385408000	 -4.203640000	 -2.633299000
H	 -3.022192000	 -2.853487000	 -2.390220000
