16
0  1  0  1  0  1  13   3 -3.64371 -3.35568 -3.26502 -3.55306 -3.30850 -3.45700 -1.62986 -1.62303 -1.63990 -3.52516 -5.94226  6.67174 -1.38127 -2.87337
C	 -3.020519747	 -1.377281912	 1.736887102
C	 -2.140744747	 -0.569533912	 2.454317102
C	 -0.894387747	 -0.246910912	 1.925085102
C	 -0.533720747	 -0.737003912	 0.670644102
C	 -1.404343747	 -1.543274912	 -0.055673898
C	 -2.647855747	 -1.860490912	 0.485521102
O	 -3.477331747	 -2.663812912	 -0.262151898
H	 -3.990167747	 -1.630141912	 2.149065102
H	 -2.434531747	 -0.196019912	 3.425513102
H	 -0.212790747	 0.379557088	 2.482244102
H	 0.430963253	 -0.490079912	 0.249363102
H	 -1.140024747	 -1.925595912	 -1.031822898
H	 -4.310360747	 -2.760412912	 0.210757102
O	 -2.341672000	 -3.288684000	 -2.915345000
H	 -2.385408000	 -4.203640000	 -2.633299000
H	 -3.022192000	 -2.853487000	 -2.390220000
