16
0  1  0  1  0  1  13   3 -0.84858 -0.42889 -0.46498 -0.88467 -0.51995 -0.74297  2.63581  2.63464  2.60579 -0.55122 -7.45386 13.27419 -2.16963 -4.20192
C	 -4.057779783	 0.503367443	 0.354145244
C	 -3.285541783	 1.534132443	 0.885501244
C	 -1.917270783	 1.586353443	 0.635134244
C	 -1.325647783	 0.600023443	 -0.152918756
C	 -2.086728783	 -0.433320557	 -0.690089756
C	 -3.454507783	 -0.475527557	 -0.430783756
O	 -4.170436783	 -1.515770557	 -0.976412756
H	 -5.122618783	 0.461249443	 0.550081244
H	 -3.758320783	 2.292539443	 1.494061244
H	 -1.319228783	 2.386113443	 1.047681244
H	 -0.264104783	 0.632900443	 -0.355673756
H	 -1.642181783	 -1.201560557	 -1.307410756
H	 -5.099093783	 -1.391876557	 -0.754696756
O	 -1.947366000	 -1.845634000	 -3.286979000
H	 -1.673578000	 -2.760032000	 -3.373719000
H	 -2.708093000	 -1.888409000	 -2.697298000
