16
0  1  0  1  0  1  13   3 -3.22783 -3.07890 -3.01011 -3.15904 -3.03978 -3.10922 -2.06350 -2.05704 -2.05821 -3.20597 -3.27366  2.27401 -0.56158 -1.64474
C	 -3.092383917	 -1.347333372	 2.072897854
C	 -2.212608917	 -0.539585372	 2.790327854
C	 -0.966251917	 -0.216962372	 2.261095854
C	 -0.605584917	 -0.707055372	 1.006654854
C	 -1.476207917	 -1.513326372	 0.280336854
C	 -2.719719917	 -1.830542372	 0.821531854
O	 -3.549195917	 -2.633864372	 0.073858854
H	 -4.062031917	 -1.600193372	 2.485075854
H	 -2.506395917	 -0.166071372	 3.761523854
H	 -0.284654917	 0.409505628	 2.818254854
H	 0.359099083	 -0.460131372	 0.585373854
H	 -1.211888917	 -1.895647372	 -0.695812146
H	 -4.382224917	 -2.730464372	 0.546767854
O	 -2.341672000	 -3.288684000	 -2.915345000
H	 -2.385408000	 -4.203640000	 -2.633299000
H	 -3.022192000	 -2.853487000	 -2.390220000
