16
0  1  0  1  0  1  13   3  4.53801  5.29187  5.03106  4.27720  4.94909  4.54668  8.75064  8.73389  8.70077  5.38401 -19.50390 42.85132 -11.09528 -6.86813
C	 -3.879691727	 0.154569046	 -0.322108432
C	 -3.107453727	 1.185334046	 0.209247568
C	 -1.739182727	 1.237555046	 -0.041119432
C	 -1.147559727	 0.251225046	 -0.829172432
C	 -1.908640727	 -0.782118954	 -1.366343432
C	 -3.276419727	 -0.824325954	 -1.107037432
O	 -3.992348727	 -1.864568954	 -1.652666432
H	 -4.944530727	 0.112451046	 -0.126172432
H	 -3.580232727	 1.943741046	 0.817807568
H	 -1.141140727	 2.037315046	 0.371427568
H	 -0.086016727	 0.284102046	 -1.031927432
H	 -1.464093727	 -1.550358954	 -1.983664432
H	 -4.921005727	 -1.740674954	 -1.430950432
O	 -3.632949000	 -3.037621000	 -3.717937000
H	 -3.822931000	 -3.970076000	 -3.603732000
H	 -3.931050000	 -2.639545000	 -2.892751000
