16
0  1  0  1  0  1  13   3 -1.95704 -1.81738 -1.72285 -1.86251 -1.76136 -1.82145 -0.55220 -0.55148 -0.55529 -1.79662 -1.68118  2.19809 -0.64440 -1.66914
C	 -6.478216869	 -0.954656381	 -0.116662137
C	 -6.367360869	 0.181334619	 0.682338863
C	 -5.128626869	 0.787087619	 0.872541863
C	 -3.999735869	 0.249208619	 0.255951863
C	 -4.098264869	 -0.883920381	 -0.545240137
C	 -5.343033869	 -1.481932381	 -0.726273137
O	 -5.397089869	 -2.602884381	 -1.521833137
H	 -7.441924869	 -1.427611381	 -0.263728137
H	 -7.251669869	 0.587743619	 1.153373863
H	 -5.043671869	 1.668019619	 1.492386863
H	 -3.033315869	 0.713700619	 0.395029863
H	 -3.232256869	 -1.308371381	 -1.033882137
H	 -6.316927869	 -2.878026381	 -1.593297137
O	 -2.341672000	 -3.288684000	 -2.915345000
H	 -2.385408000	 -4.203640000	 -2.633299000
H	 -3.022192000	 -2.853487000	 -2.390220000
