16
0  1  0  1  0  1   3  13 -3.68914 -3.34594 -3.34343 -3.68663 -3.38780 -3.57054 -1.24431 -1.24959 -1.27323 -3.44218 -8.24740 10.90294 -2.68552 -3.41220
O	 -4.551628793	 -2.973054273	 2.375651605
H	 -5.355355793	 -3.480474273	 2.241056605
H	 -4.114362793	 -3.411845273	 3.109018605
C	 -3.555223000	 -0.145046000	 0.625060000
C	 -3.185554000	 1.196342000	 0.554092000
C	 -1.965326000	 1.566373000	 -0.005380000
C	 -1.113308000	 0.577738000	 -0.495979000
C	 -1.473895000	 -0.763769000	 -0.429408000
C	 -2.697757000	 -1.131256000	 0.132028000
O	 -3.000301000	 -2.456699000	 0.171874000
H	 -4.503836000	 -0.431942000	 1.060056000
H	 -3.857477000	 1.951677000	 0.939040000
H	 -1.682144000	 2.607902000	 -0.058619000
H	 -0.162195000	 0.849846000	 -0.933373000
H	 -0.822577000	 -1.539991000	 -0.806084000
H	 -3.872056000	 -2.569582000	 0.583707000
