16
0  1  0  1  0  1   3  13 -3.34923 -2.67737 -2.93151 -3.60337 -2.99921 -3.35521  0.35133  0.32962  0.31368 -2.82480 -19.45566 32.98778 -10.01328 -6.34364
O	 -5.563635000	 -2.980593000	 1.367514000
H	 -6.225595000	 -3.395911000	 0.809941000
H	 -5.568121000	 -3.505089000	 2.171535000
C	 -5.328634624	 0.284915419	 1.515785797
C	 -5.608346624	 1.627996419	 1.758496797
C	 -4.697636624	 2.617764419	 1.398144797
C	 -3.498115624	 2.250597419	 0.789572797
C	 -3.210326624	 0.912446419	 0.543354797
C	 -4.125397624	 -0.077176581	 0.905829797
O	 -3.793593624	 -1.369554581	 0.642041797
H	 -6.036974624	 -0.483883581	 1.796143797
H	 -6.543323624	 1.896907419	 2.231467797
H	 -4.918221624	 3.658474419	 1.588075797
H	 -2.780883624	 3.008232419	 0.504021797
H	 -2.284111624	 0.614398419	 0.072277797
H	 -4.512686624	 -1.948115581	 0.942837797
