16
0  1  0  1  0  1   3  13 -3.26371 -2.57442 -2.77219 -3.46149 -2.84586 -3.20669  0.69902  0.67512  0.66345 -2.90310 -22.01486 36.20614 -10.52193 -6.57244
O	 -5.563635000	 -2.980593000	 1.367514000
H	 -6.225595000	 -3.395911000	 0.809941000
H	 -5.568121000	 -3.505089000	 2.171535000
C	 -2.884338584	 -1.479357252	 0.194183411
C	 -1.964340584	 -0.499086252	 -0.171446589
C	 -0.761550584	 -0.847942252	 -0.780120589
C	 -0.485329584	 -2.193142252	 -1.021285589
C	 -1.397674584	 -3.178549252	 -0.659764589
C	 -2.602398584	 -2.825432252	 -0.049809589
O	 -3.458222584	 -3.828788252	 0.282995411
H	 -3.819047584	 -1.207476252	 0.667254411
H	 -2.193170584	 0.540280748	 0.022327411
H	 -0.050478584	 -0.084671252	 -1.062262589
H	 0.444816416	 -2.479473252	 -1.493317589
H	 -1.195771584	 -4.224958252	 -0.841104589
H	 -4.249056584	 -3.445746252	 0.695507411
