16
0  1  0  1  0  1   3  13 -4.08180 -3.93598 -3.90024 -4.04606 -3.92432 -3.99978 -3.06278 -3.06575 -3.07778 -3.98989 -4.24478  2.51158 -0.86398 -1.39271
O	 -5.125624049	 -4.468778988	 1.036739757
H	 -5.536349049	 -4.997523988	 0.348770757
H	 -4.878864049	 -5.106673988	 1.710360757
C	 -3.555223000	 -0.145046000	 0.625060000
C	 -3.185554000	 1.196342000	 0.554092000
C	 -1.965326000	 1.566373000	 -0.005380000
C	 -1.113308000	 0.577738000	 -0.495979000
C	 -1.473895000	 -0.763769000	 -0.429408000
C	 -2.697757000	 -1.131256000	 0.132028000
O	 -3.000301000	 -2.456699000	 0.171874000
H	 -4.503836000	 -0.431942000	 1.060056000
H	 -3.857477000	 1.951677000	 0.939040000
H	 -1.682144000	 2.607902000	 -0.058619000
H	 -0.162195000	 0.849846000	 -0.933373000
H	 -0.822577000	 -1.539991000	 -0.806084000
H	 -3.872056000	 -2.569582000	 0.583707000
