16
0  1  0  1  0  1   3  13 -5.57183 -5.21066 -5.24326 -5.60443 -5.29388 -5.48442 -3.29192 -3.30160 -3.32769 -5.21217 -9.10319 10.77809 -3.43101 -3.45605
O	 -5.563635000	 -2.980593000	 1.367514000
H	 -6.225595000	 -3.395911000	 0.809941000
H	 -5.568121000	 -3.505089000	 2.171535000
C	 -3.332727685	 -0.326191707	 1.979540023
C	 -2.899720685	 0.973344293	 2.233953023
C	 -1.543055685	 1.253208293	 2.375457023
C	 -0.618089685	 0.216362293	 2.259664023
C	 -1.041048685	 -1.083929707	 2.005808023
C	 -2.401691685	 -1.361025707	 1.864514023
O	 -2.760151685	 -2.649524707	 1.617134023
H	 -4.387392685	 -0.543000707	 1.869664023
H	 -3.629606685	 1.766987293	 2.321083023
H	 -1.211106685	 2.262511293	 2.572757023
H	 0.439080315	 0.418382293	 2.367150023
H	 -0.334331685	 -1.896764707	 1.913767023
H	 -3.726665685	 -2.699781707	 1.542103023
