16
0  1  0  1  0  1   3  13 -5.19589 -4.76286 -4.83142 -5.26445 -4.88706 -5.11534 -2.50468 -2.51680 -2.54076 -4.73918 -11.04614 15.06738 -4.62244 -4.13799
O	 -5.563635000	 -2.980593000	 1.367514000
H	 -6.225595000	 -3.395911000	 0.809941000
H	 -5.568121000	 -3.505089000	 2.171535000
C	 -3.429410281	 -0.340971248	 1.970351127
C	 -2.996403281	 0.958564752	 2.224764127
C	 -1.639738281	 1.238428752	 2.366268127
C	 -0.714772281	 0.201582752	 2.250475127
C	 -1.137731281	 -1.098709248	 1.996619127
C	 -2.498374281	 -1.375805248	 1.855325127
O	 -2.856834281	 -2.664304248	 1.607945127
H	 -4.484075281	 -0.557780248	 1.860475127
H	 -3.726289281	 1.752207752	 2.311894127
H	 -1.307789281	 2.247731752	 2.563568127
H	 0.342397719	 0.403602752	 2.357961127
H	 -0.431014281	 -1.911544248	 1.904578127
H	 -3.823348281	 -2.714561248	 1.532914127
