16
0  1  0  1  0  1   3  13 -6.07313 -5.59184 -5.65423 -6.13551 -5.71726 -5.96767 -3.10357 -3.12328 -3.14368 -5.71975 -14.58185 19.22228 -5.77489 -4.58528
O	 -5.563635000	 -2.980593000	 1.367514000
H	 -6.225595000	 -3.395911000	 0.809941000
H	 -5.568121000	 -3.505089000	 2.171535000
C	 -2.720016282	 -1.537501409	 0.110182587
C	 -1.800018282	 -0.557230409	 -0.255447413
C	 -0.597228282	 -0.906086409	 -0.864121413
C	 -0.321007282	 -2.251286409	 -1.105286413
C	 -1.233352282	 -3.236693409	 -0.743765413
C	 -2.438076282	 -2.883576409	 -0.133810413
O	 -3.293900282	 -3.886932409	 0.198994587
H	 -3.654725282	 -1.265620409	 0.583253587
H	 -2.028848282	 0.482136591	 -0.061673413
H	 0.113843718	 -0.142815409	 -1.146263413
H	 0.609138718	 -2.537617409	 -1.577318413
H	 -1.031449282	 -4.283102409	 -0.925105413
H	 -4.084734282	 -3.503890409	 0.611506587
