16
0  1  0  1  0  1   3  13 -6.82317 -6.41270 -6.47572 -6.88619 -6.53003 -6.74813 -4.41675 -4.43441 -4.46332 -6.47782 -11.92021 13.70048 -4.42852 -3.82957
O	 -5.563635000	 -2.980593000	 1.367514000
H	 -6.225595000	 -3.395911000	 0.809941000
H	 -5.568121000	 -3.505089000	 2.171535000
C	 -3.641249857	 -0.165948355	 0.664921250
C	 -3.271580857	 1.175439645	 0.593953250
C	 -2.051352857	 1.545470645	 0.034481250
C	 -1.199334857	 0.556835645	 -0.456117750
C	 -1.559921857	 -0.784671355	 -0.389546750
C	 -2.783783857	 -1.152158355	 0.171889250
O	 -3.086327857	 -2.477601355	 0.211735250
H	 -4.589862857	 -0.452844355	 1.099917250
H	 -3.943503857	 1.930774645	 0.978901250
H	 -1.768170857	 2.586999645	 -0.018757750
H	 -0.248221857	 0.828943645	 -0.893511750
H	 -0.908603857	 -1.560893355	 -0.766222750
H	 -3.958082857	 -2.590484355	 0.623568250
