16
0  1  0  1  0  1   3  13 -6.34388 -6.06596 -6.05043 -6.32834 -6.09458 -6.23974 -4.47529 -4.48406 -4.50780 -6.21624 -8.39597  7.38896 -2.48676 -2.72248
O	 -5.563635000	 -2.980593000	 1.367514000
H	 -6.225595000	 -3.395911000	 0.809941000
H	 -5.568121000	 -3.505089000	 2.171535000
C	 -2.473532829	 -1.624717644	 -0.015818648
C	 -1.553534829	 -0.644446644	 -0.381448648
C	 -0.350744829	 -0.993302644	 -0.990122648
C	 -0.074523829	 -2.338502644	 -1.231287648
C	 -0.986868829	 -3.323909644	 -0.869766648
C	 -2.191592829	 -2.970792644	 -0.259811648
O	 -3.047416829	 -3.974148644	 0.072993352
H	 -3.408241829	 -1.352836644	 0.457252352
H	 -1.782364829	 0.394920356	 -0.187674648
H	 0.360327171	 -0.230031644	 -1.272264648
H	 0.855622171	 -2.624833644	 -1.703319648
H	 -0.784965829	 -4.370318644	 -1.051106648
H	 -3.838250829	 -3.591106644	 0.485505352
