16
0  1  0  1  0  1   3  13 -2.61316 -1.98608 -2.18514 -2.81222 -2.25153 -2.58203  1.10045  1.08299  1.06795 -2.02660 -16.78311 29.34708 -8.60739 -5.98317
O	 -5.563635000	 -2.980593000	 1.367514000
H	 -6.225595000	 -3.395911000	 0.809941000
H	 -5.568121000	 -3.505089000	 2.171535000
C	 -4.645174315	 -0.200806137	 -0.165512906
C	 -4.492089315	 1.145199863	 -0.490854906
C	 -3.738442315	 1.525181863	 -1.598336906
C	 -3.135898315	 0.541867863	 -2.381954906
C	 -3.283199315	 -0.804186137	 -2.064881906
C	 -4.039311315	 -1.181649137	 -0.954065906
O	 -4.150664315	 -2.511167137	 -0.689676906
H	 -5.231113315	 -0.495437137	 0.695455094
H	 -4.965783315	 1.896305863	 0.126924094
H	 -3.622025315	 2.570266863	 -1.847441906
H	 -2.547467315	 0.821710863	 -3.245325906
H	 -2.821337315	 -1.576367137	 -2.664081906
H	 -4.698357315	 -2.630962137	 0.102779094
