16
0  1  0  1  0  1   3  13 -6.62739 -6.30144 -6.33977 -6.66571 -6.38529 -6.55843 -4.69724 -4.70656 -4.73270 -6.34650 -9.12533  8.95724 -3.07057 -3.10785
O	 -5.563635000	 -2.980593000	 1.367514000
H	 -6.225595000	 -3.395911000	 0.809941000
H	 -5.568121000	 -3.505089000	 2.171535000
C	 -5.065897530	 0.543034774	 1.409616746
C	 -5.345609530	 1.886115774	 1.652327746
C	 -4.434899530	 2.875883774	 1.291975746
C	 -3.235378530	 2.508716774	 0.683403746
C	 -2.947589530	 1.170565774	 0.437185746
C	 -3.862660530	 0.180942774	 0.799660746
O	 -3.530856530	 -1.111435226	 0.535872746
H	 -5.774237530	 -0.225764226	 1.689974746
H	 -6.280586530	 2.155026774	 2.125298746
H	 -4.655484530	 3.916593774	 1.481906746
H	 -2.518146530	 3.266351774	 0.397852746
H	 -2.021374530	 0.872517774	 -0.033891254
H	 -4.249949530	 -1.689996226	 0.836668746
