16
0  1  0  1  0  1   3  13 -1.89245 -1.66608 -1.73218 -1.95856 -1.76433 -1.88014 -0.10660 -0.10586 -0.11420 -1.88948 -5.06960  7.14140 -1.51163 -2.44965
O	 -6.366249799	 -0.837670469	 1.926813771
H	 -7.190152799	 -1.013656469	 1.466615771
H	 -6.532700799	 -1.122851469	 2.828218771
C	 -3.555223000	 -0.145046000	 0.625060000
C	 -3.185554000	 1.196342000	 0.554092000
C	 -1.965326000	 1.566373000	 -0.005380000
C	 -1.113308000	 0.577738000	 -0.495979000
C	 -1.473895000	 -0.763769000	 -0.429408000
C	 -2.697757000	 -1.131256000	 0.132028000
O	 -3.000301000	 -2.456699000	 0.171874000
H	 -4.503836000	 -0.431942000	 1.060056000
H	 -3.857477000	 1.951677000	 0.939040000
H	 -1.682144000	 2.607902000	 -0.058619000
H	 -0.162195000	 0.849846000	 -0.933373000
H	 -0.822577000	 -1.539991000	 -0.806084000
H	 -3.872056000	 -2.569582000	 0.583707000
