16
0  1  0  1  0  1   3  13  4.95342  5.98875  5.48994  4.45461  5.41265  4.84267 10.02045  9.99239  9.95418  4.69345 -32.77458 67.28165 -20.27632 -9.53731
O	 -5.563635000	 -2.980593000	 1.367514000
H	 -6.225595000	 -3.395911000	 0.809941000
H	 -5.568121000	 -3.505089000	 2.171535000
C	 -4.063763579	 -0.268608525	 0.860696447
C	 -3.694094579	 1.072779475	 0.789728447
C	 -2.473866579	 1.442810475	 0.230256447
C	 -1.621848579	 0.454175475	 -0.260342553
C	 -1.982435579	 -0.887331525	 -0.193771553
C	 -3.206297579	 -1.254818525	 0.367664447
O	 -3.508841579	 -2.580261525	 0.407510447
H	 -5.012376579	 -0.555504525	 1.295692447
H	 -4.366017579	 1.828114475	 1.174676447
H	 -2.190684579	 2.484339475	 0.177017447
H	 -0.670735579	 0.726283475	 -0.697736553
H	 -1.331117579	 -1.663553525	 -0.570447553
H	 -4.380596579	 -2.693144525	 0.819343447
