16
0  1  0  1  0  1   3  13 -6.15377 -5.68880 -5.79797 -6.26294 -5.85384 -6.09988 -3.46253 -3.47748 -3.50007 -5.70049 -13.05694 17.22411 -5.45240 -4.41526
O	 -5.563635000	 -2.980593000	 1.367514000
H	 -6.225595000	 -3.395911000	 0.809941000
H	 -5.568121000	 -3.505089000	 2.171535000
C	 -5.197266077	 0.413975096	 1.462701272
C	 -5.476978077	 1.757056096	 1.705412272
C	 -4.566268077	 2.746824096	 1.345060272
C	 -3.366747077	 2.379657096	 0.736488272
C	 -3.078958077	 1.041506096	 0.490270272
C	 -3.994029077	 0.051883096	 0.852745272
O	 -3.662225077	 -1.240494904	 0.588957272
H	 -5.905606077	 -0.354823904	 1.743059272
H	 -6.411955077	 2.025967096	 2.178383272
H	 -4.786853077	 3.787534096	 1.534991272
H	 -2.649515077	 3.137292096	 0.450937272
H	 -2.152743077	 0.743458096	 0.019193272
H	 -4.381318077	 -1.819055904	 0.889753272
