16
0  1  0  1  0  1   3  13 -5.61666 -5.31707 -5.32730 -5.62689 -5.37317 -5.53019 -3.69254 -3.69999 -3.72448 -5.34949 -7.58933  7.70122 -2.56844 -2.89294
O	 -5.563635000	 -2.980593000	 1.367514000
H	 -6.225595000	 -3.395911000	 0.809941000
H	 -5.568121000	 -3.505089000	 2.171535000
C	 -3.236045090	 -0.311412165	 1.988728919
C	 -2.803038090	 0.988123835	 2.243141919
C	 -1.446373090	 1.267987835	 2.384645919
C	 -0.521407090	 0.231141835	 2.268852919
C	 -0.944366090	 -1.069150165	 2.014996919
C	 -2.305009090	 -1.346246165	 1.873702919
O	 -2.663469090	 -2.634745165	 1.626322919
H	 -4.290710090	 -0.528221165	 1.878852919
H	 -3.532924090	 1.781766835	 2.330271919
H	 -1.114424090	 2.277290835	 2.581945919
H	 0.535762910	 0.433161835	 2.376338919
H	 -0.237649090	 -1.881985165	 1.922955919
H	 -3.629983090	 -2.685002165	 1.551291919
