16
0  1  0  1  0  1   3  13 -2.22527 -2.05641 -2.09540 -2.26426 -2.12231 -2.20611 -0.83733 -0.83600 -0.84010 -2.25238 -3.75958  4.43351 -1.01998 -1.90633
O	 -6.504816121	 -0.741453162	 2.001430813
H	 -7.328719121	 -0.917439162	 1.541232813
H	 -6.671267121	 -1.026634162	 2.902835813
C	 -3.555223000	 -0.145046000	 0.625060000
C	 -3.185554000	 1.196342000	 0.554092000
C	 -1.965326000	 1.566373000	 -0.005380000
C	 -1.113308000	 0.577738000	 -0.495979000
C	 -1.473895000	 -0.763769000	 -0.429408000
C	 -2.697757000	 -1.131256000	 0.132028000
O	 -3.000301000	 -2.456699000	 0.171874000
H	 -4.503836000	 -0.431942000	 1.060056000
H	 -3.857477000	 1.951677000	 0.939040000
H	 -1.682144000	 2.607902000	 -0.058619000
H	 -0.162195000	 0.849846000	 -0.933373000
H	 -0.822577000	 -1.539991000	 -0.806084000
H	 -3.872056000	 -2.569582000	 0.583707000
