16
0  1  0  1  0  1   3  13 -6.39838 -6.16167 -6.16718 -6.40388 -6.20576 -6.32950 -4.93764 -4.94519 -4.96699 -6.28492 -7.23601  5.20059 -1.95573 -2.29376
O	 -5.563635000	 -2.980593000	 1.367514000
H	 -6.225595000	 -3.395911000	 0.809941000
H	 -5.568121000	 -3.505089000	 2.171535000
C	 -3.387741624	 -0.104352253	 0.547456131
C	 -3.018072624	 1.237035747	 0.476488131
C	 -1.797844624	 1.607066747	 -0.082983869
C	 -0.945826624	 0.618431747	 -0.573582869
C	 -1.306413624	 -0.723075253	 -0.507011869
C	 -2.530275624	 -1.090562253	 0.054424131
O	 -2.832819624	 -2.416005253	 0.094270131
H	 -4.336354624	 -0.391248253	 0.982452131
H	 -3.689995624	 1.992370747	 0.861436131
H	 -1.514662624	 2.648595747	 -0.136222869
H	 0.005286376	 0.890539747	 -1.010976869
H	 -0.655095624	 -1.499297253	 -0.883687869
H	 -3.704574624	 -2.528888253	 0.506103131
