16
0  1  0  1  0  1   3  13  4.94597  5.88884  5.45062  4.50775  5.37477  4.86214 10.00116  9.97868  9.95171  5.15228 -26.26939 56.81148 -16.61053 -8.77928
O	 -5.563635000	 -2.980593000	 1.367514000
H	 -6.225595000	 -3.395911000	 0.809941000
H	 -5.568121000	 -3.505089000	 2.171535000
C	 -4.753334026	 -0.244509995	 -0.007421042
C	 -4.600249026	 1.101496005	 -0.332763042
C	 -3.846602026	 1.481478005	 -1.440245042
C	 -3.244058026	 0.498164005	 -2.223863042
C	 -3.391359026	 -0.847889995	 -1.906790042
C	 -4.147471026	 -1.225352995	 -0.795974042
O	 -4.258824026	 -2.554870995	 -0.531585042
H	 -5.339273026	 -0.539140995	 0.853546958
H	 -5.073943026	 1.852602005	 0.285015958
H	 -3.730185026	 2.526563005	 -1.689350042
H	 -2.655627026	 0.778007005	 -3.087234042
H	 -2.929497026	 -1.620070995	 -2.505990042
H	 -4.806517026	 -2.674665995	 0.260870958
