16
0  1  0  1  0  1   3  13  4.86221  5.88665  5.45757  4.43313  5.37768  4.81833 10.04282 10.01972  9.98825  4.47452 -33.99529 67.82550 -19.81185 -9.54384
O	 -5.563635000	 -2.980593000	 1.367514000
H	 -6.225595000	 -3.395911000	 0.809941000
H	 -5.568121000	 -3.505089000	 2.171535000
C	 -3.048660886	 -1.421213096	 0.278184234
C	 -2.128662886	 -0.440942096	 -0.087445766
C	 -0.925872886	 -0.789798096	 -0.696119766
C	 -0.649651886	 -2.134998096	 -0.937284766
C	 -1.561996886	 -3.120405096	 -0.575763766
C	 -2.766720886	 -2.767288096	 0.034191234
O	 -3.622544886	 -3.770644096	 0.366996234
H	 -3.983369886	 -1.149332096	 0.751255234
H	 -2.357492886	 0.598424904	 0.106328234
H	 -0.214800886	 -0.026527096	 -0.978261766
H	 0.280494114	 -2.421329096	 -1.409316766
H	 -1.360093886	 -4.166814096	 -0.757103766
H	 -4.413378886	 -3.387602096	 0.779508234
