16
0  1  0  1  0  1   3  13 -6.02538 -5.79795 -5.77598 -6.00341 -5.81433 -5.93166 -4.43662 -4.44199 -4.46099 -5.96117 -7.11765  5.36335 -1.90700 -2.29988
O	 -5.563635000	 -2.980593000	 1.367514000
H	 -6.225595000	 -3.395911000	 0.809941000
H	 -5.568121000	 -3.505089000	 2.171535000
C	 -2.391371678	 -1.653789722	 -0.057819060
C	 -1.471373678	 -0.673518722	 -0.423449060
C	 -0.268583678	 -1.022374722	 -1.032123060
C	 0.007637322	 -2.367574722	 -1.273288060
C	 -0.904707678	 -3.352981722	 -0.911767060
C	 -2.109431678	 -2.999864722	 -0.301812060
O	 -2.965255678	 -4.003220722	 0.030992940
H	 -3.326080678	 -1.381908722	 0.415251940
H	 -1.700203678	 0.365848278	 -0.229675060
H	 0.442488322	 -0.259103722	 -1.314265060
H	 0.937783322	 -2.653905722	 -1.745320060
H	 -0.702804678	 -4.399390722	 -1.093107060
H	 -3.756089678	 -3.620178722	 0.443504940
