16
0  1  0  1  0  1   3  13 -3.85309 -3.67917 -3.65242 -3.82634 -3.68305 -3.77018 -2.45225 -2.45265 -2.46281 -3.80995 -4.36738  3.59591 -1.10629 -1.93219
O	 -6.024702291	 -2.814542601	 -0.142073103
H	 -6.350683291	 -3.126594601	 -0.989379103
H	 -6.452895291	 -3.384336601	 0.501006897
C	 -3.555223000	 -0.145046000	 0.625060000
C	 -3.185554000	 1.196342000	 0.554092000
C	 -1.965326000	 1.566373000	 -0.005380000
C	 -1.113308000	 0.577738000	 -0.495979000
C	 -1.473895000	 -0.763769000	 -0.429408000
C	 -2.697757000	 -1.131256000	 0.132028000
O	 -3.000301000	 -2.456699000	 0.171874000
H	 -4.503836000	 -0.431942000	 1.060056000
H	 -3.857477000	 1.951677000	 0.939040000
H	 -1.682144000	 2.607902000	 -0.058619000
H	 -0.162195000	 0.849846000	 -0.933373000
H	 -0.822577000	 -1.539991000	 -0.806084000
H	 -3.872056000	 -2.569582000	 0.583707000
