16
0  1  0  1  0  1   3  13  0.28880  0.67283  0.50064  0.11662  0.45791  0.25546  3.15589  3.15638  3.14419  0.31995 -9.48740 17.06537 -3.26498 -3.99305
O	 -6.089117155	 -1.030105084	 1.777579685
H	 -6.913020155	 -1.206091084	 1.317381685
H	 -6.255568155	 -1.315286084	 2.678984685
C	 -3.555223000	 -0.145046000	 0.625060000
C	 -3.185554000	 1.196342000	 0.554092000
C	 -1.965326000	 1.566373000	 -0.005380000
C	 -1.113308000	 0.577738000	 -0.495979000
C	 -1.473895000	 -0.763769000	 -0.429408000
C	 -2.697757000	 -1.131256000	 0.132028000
O	 -3.000301000	 -2.456699000	 0.171874000
H	 -4.503836000	 -0.431942000	 1.060056000
H	 -3.857477000	 1.951677000	 0.939040000
H	 -1.682144000	 2.607902000	 -0.058619000
H	 -0.162195000	 0.849846000	 -0.933373000
H	 -0.822577000	 -1.539991000	 -0.806084000
H	 -3.872056000	 -2.569582000	 0.583707000
