16
0  1  0  1  0  1   3  13 -1.36690 -0.81577 -0.91067 -1.46180 -0.96558 -1.25989  1.97109  1.95509  1.93747 -0.66427 -14.73166 24.50164 -5.69048 -4.74377
O	 -4.783741854	 -3.950816173	 0.913185369
H	 -5.194466854	 -4.479561173	 0.225216369
H	 -4.536981854	 -4.588711173	 1.586806369
C	 -3.555223000	 -0.145046000	 0.625060000
C	 -3.185554000	 1.196342000	 0.554092000
C	 -1.965326000	 1.566373000	 -0.005380000
C	 -1.113308000	 0.577738000	 -0.495979000
C	 -1.473895000	 -0.763769000	 -0.429408000
C	 -2.697757000	 -1.131256000	 0.132028000
O	 -3.000301000	 -2.456699000	 0.171874000
H	 -4.503836000	 -0.431942000	 1.060056000
H	 -3.857477000	 1.951677000	 0.939040000
H	 -1.682144000	 2.607902000	 -0.058619000
H	 -0.162195000	 0.849846000	 -0.933373000
H	 -0.822577000	 -1.539991000	 -0.806084000
H	 -3.872056000	 -2.569582000	 0.583707000
