16
0  1  0  1  0  1   3  13 -1.49299 -0.96417 -1.04603 -1.57485 -1.10125 -1.38448  2.03473  2.02409  2.00174 -1.06081 -13.52357 22.67446 -5.14894 -5.06276
O	 -5.512167460	 -2.756218648	 0.030731684
H	 -5.838148460	 -3.068270648	 -0.816574316
H	 -5.940360460	 -3.326012648	 0.673811684
C	 -3.555223000	 -0.145046000	 0.625060000
C	 -3.185554000	 1.196342000	 0.554092000
C	 -1.965326000	 1.566373000	 -0.005380000
C	 -1.113308000	 0.577738000	 -0.495979000
C	 -1.473895000	 -0.763769000	 -0.429408000
C	 -2.697757000	 -1.131256000	 0.132028000
O	 -3.000301000	 -2.456699000	 0.171874000
H	 -4.503836000	 -0.431942000	 1.060056000
H	 -3.857477000	 1.951677000	 0.939040000
H	 -1.682144000	 2.607902000	 -0.058619000
H	 -0.162195000	 0.849846000	 -0.933373000
H	 -0.822577000	 -1.539991000	 -0.806084000
H	 -3.872056000	 -2.569582000	 0.583707000
