16
0  1  0  1  0  1   3  13 -4.00097 -3.78183 -3.75571 -3.97485 -3.79065 -3.90354 -2.31349 -2.31510 -2.33025 -3.90851 -5.32096  5.20898 -1.46862 -2.32791
O	 -4.627136881	 -3.017884525	 2.574756561
H	 -5.430863881	 -3.525304525	 2.440161561
H	 -4.189870881	 -3.456675525	 3.308123561
C	 -3.555223000	 -0.145046000	 0.625060000
C	 -3.185554000	 1.196342000	 0.554092000
C	 -1.965326000	 1.566373000	 -0.005380000
C	 -1.113308000	 0.577738000	 -0.495979000
C	 -1.473895000	 -0.763769000	 -0.429408000
C	 -2.697757000	 -1.131256000	 0.132028000
O	 -3.000301000	 -2.456699000	 0.171874000
H	 -4.503836000	 -0.431942000	 1.060056000
H	 -3.857477000	 1.951677000	 0.939040000
H	 -1.682144000	 2.607902000	 -0.058619000
H	 -0.162195000	 0.849846000	 -0.933373000
H	 -0.822577000	 -1.539991000	 -0.806084000
H	 -3.872056000	 -2.569582000	 0.583707000
