16
0  1  0  1  0  1   3  13  4.94607  5.88891  5.45068  4.50784  5.37478  4.86220 10.00124  9.97876  9.95178  5.15241 -26.26884 56.81086 -16.61035 -8.77927
O	 -5.563635000	 -2.980593000	 1.367514000
H	 -6.225595000	 -3.395911000	 0.809941000
H	 -5.568121000	 -3.505089000	 2.171535000
C	 -3.816140663	 -0.400089415	 1.933595543
C	 -3.383133663	 0.899446585	 2.188008543
C	 -2.026468663	 1.179310585	 2.329512543
C	 -1.101502663	 0.142464585	 2.213719543
C	 -1.524461663	 -1.157827415	 1.959863543
C	 -2.885104663	 -1.434923415	 1.818569543
O	 -3.243564663	 -2.723422415	 1.571189543
H	 -4.870805663	 -0.616898415	 1.823719543
H	 -4.113019663	 1.693089585	 2.275138543
H	 -1.694519663	 2.188613585	 2.526812543
H	 -0.044332663	 0.344484585	 2.321205543
H	 -0.817744663	 -1.970662415	 1.867822543
H	 -4.210078663	 -2.773679415	 1.496158543
