16
0  1  0  1  0  1   3  13 -3.68914 -3.34598 -3.34350 -3.68666 -3.38791 -3.57060 -1.24431 -1.24960 -1.27324 -3.44221 -8.24763 10.90344 -2.68570 -3.41231
O	 -5.717181392	 -2.779548229	 -0.038390231
H	 -6.043162392	 -3.091600229	 -0.885696231
H	 -6.145374392	 -3.349342229	 0.604689769
C	 -3.555223000	 -0.145046000	 0.625060000
C	 -3.185554000	 1.196342000	 0.554092000
C	 -1.965326000	 1.566373000	 -0.005380000
C	 -1.113308000	 0.577738000	 -0.495979000
C	 -1.473895000	 -0.763769000	 -0.429408000
C	 -2.697757000	 -1.131256000	 0.132028000
O	 -3.000301000	 -2.456699000	 0.171874000
H	 -4.503836000	 -0.431942000	 1.060056000
H	 -3.857477000	 1.951677000	 0.939040000
H	 -1.682144000	 2.607902000	 -0.058619000
H	 -0.162195000	 0.849846000	 -0.933373000
H	 -0.822577000	 -1.539991000	 -0.806084000
H	 -3.872056000	 -2.569582000	 0.583707000
