16
0  1  0  1  0  1   3  13 -4.33718 -4.15349 -4.11538 -4.29906 -4.14340 -4.24023 -3.08883 -3.09294 -3.10916 -4.18541 -5.03444  3.69183 -1.14938 -1.69343
O	 -5.068643683	 -4.382451852	 1.016147359
H	 -5.479368683	 -4.911196852	 0.328178359
H	 -4.821883683	 -5.020346852	 1.689768359
C	 -3.555223000	 -0.145046000	 0.625060000
C	 -3.185554000	 1.196342000	 0.554092000
C	 -1.965326000	 1.566373000	 -0.005380000
C	 -1.113308000	 0.577738000	 -0.495979000
C	 -1.473895000	 -0.763769000	 -0.429408000
C	 -2.697757000	 -1.131256000	 0.132028000
O	 -3.000301000	 -2.456699000	 0.171874000
H	 -4.503836000	 -0.431942000	 1.060056000
H	 -3.857477000	 1.951677000	 0.939040000
H	 -1.682144000	 2.607902000	 -0.058619000
H	 -0.162195000	 0.849846000	 -0.933373000
H	 -0.822577000	 -1.539991000	 -0.806084000
H	 -3.872056000	 -2.569582000	 0.583707000
