16
0  1  0  1  0  1   3  13  4.73500  5.73727  5.23406  4.23180  5.15708  4.60782  9.73673  9.70949  9.67553  4.67375 -29.79863 62.77208 -19.03409 -9.26560
O	 -5.563635000	 -2.980593000	 1.367514000
H	 -6.225595000	 -3.395911000	 0.809941000
H	 -5.568121000	 -3.505089000	 2.171535000
C	 -5.460003171	 0.155855742	 1.568870322
C	 -5.739715171	 1.498936742	 1.811581322
C	 -4.829005171	 2.488704742	 1.451229322
C	 -3.629484171	 2.121537742	 0.842657322
C	 -3.341695171	 0.783386742	 0.596439322
C	 -4.256766171	 -0.206236258	 0.958914322
O	 -3.924962171	 -1.498614258	 0.695126322
H	 -6.168343171	 -0.612943258	 1.849228322
H	 -6.674692171	 1.767847742	 2.284552322
H	 -5.049590171	 3.529414742	 1.641160322
H	 -2.912252171	 2.879172742	 0.557106322
H	 -2.415480171	 0.485338742	 0.125362322
H	 -4.644055171	 -2.077175258	 0.995922322
