16
0  1  0  1  0  1   3  13 -3.44352 -2.74323 -2.99706 -3.69736 -3.06840 -3.43995  0.37486  0.34786  0.32905 -2.99191 -21.43705 35.76222 -10.76713 -6.54995
O	 -5.563635000	 -2.980593000	 1.367514000
H	 -6.225595000	 -3.395911000	 0.809941000
H	 -5.568121000	 -3.505089000	 2.171535000
C	 -3.894758090	 -0.227544457	 0.782386368
C	 -3.525089090	 1.113843543	 0.711418368
C	 -2.304861090	 1.483874543	 0.151946368
C	 -1.452843090	 0.495239543	 -0.338652632
C	 -1.813430090	 -0.846267457	 -0.272081632
C	 -3.037292090	 -1.213754457	 0.289354368
O	 -3.339836090	 -2.539197457	 0.329200368
H	 -4.843371090	 -0.514440457	 1.217382368
H	 -4.197012090	 1.869178543	 1.096366368
H	 -2.021679090	 2.525403543	 0.098707368
H	 -0.501730090	 0.767347543	 -0.776046632
H	 -1.162112090	 -1.622489457	 -0.648757632
H	 -4.211591090	 -2.652080457	 0.741033368
