16
0  1  0  1  0  1   3  13 -5.19591 -4.76292 -4.83145 -5.26444 -4.88714 -5.11537 -2.50473 -2.51685 -2.54081 -4.73926 -11.04636 15.06760 -4.62250 -4.13799
O	 -5.563635000	 -2.980593000	 1.367514000
H	 -6.225595000	 -3.395911000	 0.809941000
H	 -5.568121000	 -3.505089000	 2.171535000
C	 -4.537014605	 -0.157102279	 -0.323604769
C	 -4.383929605	 1.188903721	 -0.648946769
C	 -3.630282605	 1.568885721	 -1.756428769
C	 -3.027738605	 0.585571721	 -2.540046769
C	 -3.175039605	 -0.760482279	 -2.222973769
C	 -3.931151605	 -1.137945279	 -1.112157769
O	 -4.042504605	 -2.467463279	 -0.847768769
H	 -5.122953605	 -0.451733279	 0.537363231
H	 -4.857623605	 1.940009721	 -0.031167769
H	 -3.513865605	 2.613970721	 -2.005533769
H	 -2.439307605	 0.865414721	 -3.403417769
H	 -2.713177605	 -1.532663279	 -2.822173769
H	 -4.590197605	 -2.587258279	 -0.055312769
