16
0  1  0  1  0  1   3  13 -3.61485 -3.47708 -3.45330 -3.59106 -3.47986 -3.54663 -2.45197 -2.45147 -2.45735 -3.60463 -3.63394  2.48120 -0.84318 -1.60871
O	 -4.702644969	 -3.062714778	 2.773861517
H	 -5.506371969	 -3.570134778	 2.639266517
H	 -4.265378969	 -3.501505778	 3.507228517
C	 -3.555223000	 -0.145046000	 0.625060000
C	 -3.185554000	 1.196342000	 0.554092000
C	 -1.965326000	 1.566373000	 -0.005380000
C	 -1.113308000	 0.577738000	 -0.495979000
C	 -1.473895000	 -0.763769000	 -0.429408000
C	 -2.697757000	 -1.131256000	 0.132028000
O	 -3.000301000	 -2.456699000	 0.171874000
H	 -4.503836000	 -0.431942000	 1.060056000
H	 -3.857477000	 1.951677000	 0.939040000
H	 -1.682144000	 2.607902000	 -0.058619000
H	 -0.162195000	 0.849846000	 -0.933373000
H	 -0.822577000	 -1.539991000	 -0.806084000
H	 -3.872056000	 -2.569582000	 0.583707000
