16
0  1  0  1  0  1   3  13 -4.04668 -3.68866 -3.68365 -4.04168 -3.72626 -3.91873 -1.77876 -1.78871 -1.81271 -3.59460 -9.16431 11.58895 -2.90826 -3.11098
O	 -4.897702585	 -4.123470445	 0.954370165
H	 -5.308427585	 -4.652215445	 0.266401165
H	 -4.650942585	 -4.761365445	 1.627991165
C	 -3.555223000	 -0.145046000	 0.625060000
C	 -3.185554000	 1.196342000	 0.554092000
C	 -1.965326000	 1.566373000	 -0.005380000
C	 -1.113308000	 0.577738000	 -0.495979000
C	 -1.473895000	 -0.763769000	 -0.429408000
C	 -2.697757000	 -1.131256000	 0.132028000
O	 -3.000301000	 -2.456699000	 0.171874000
H	 -4.503836000	 -0.431942000	 1.060056000
H	 -3.857477000	 1.951677000	 0.939040000
H	 -1.682144000	 2.607902000	 -0.058619000
H	 -0.162195000	 0.849846000	 -0.933373000
H	 -0.822577000	 -1.539991000	 -0.806084000
H	 -3.872056000	 -2.569582000	 0.583707000
