16
0  1  0  1  0  1   3  13 -6.45791 -6.18634 -6.20720 -6.47877 -6.24827 -6.39126 -4.83263 -4.83968 -4.86276 -6.25900 -7.75676  6.45002 -2.33372 -2.61855
O	 -5.563635000	 -2.980593000	 1.367514000
H	 -6.225595000	 -3.395911000	 0.809941000
H	 -5.568121000	 -3.505089000	 2.171535000
C	 -5.000213257	 0.607564612	 1.383074484
C	 -5.279925257	 1.950645612	 1.625785484
C	 -4.369215257	 2.940413612	 1.265433484
C	 -3.169694257	 2.573246612	 0.656861484
C	 -2.881905257	 1.235095612	 0.410643484
C	 -3.796976257	 0.245472612	 0.773118484
O	 -3.465172257	 -1.046905388	 0.509330484
H	 -5.708553257	 -0.161234388	 1.663432484
H	 -6.214902257	 2.219556612	 2.098756484
H	 -4.589800257	 3.981123612	 1.455364484
H	 -2.452462257	 3.330881612	 0.371310484
H	 -1.955690257	 0.937047612	 -0.060433516
H	 -4.184265257	 -1.625466388	 0.810126484
