16
0  1  0  1  0  1   3  13  5.62312  6.23247  5.87518  5.26582  5.81837  5.49566 10.01173 10.00686  9.99910  5.44048 -17.35056 35.56086 -6.48953 -6.28031
O	 -5.811984511	 -1.222539698	 1.628345599
H	 -6.635887511	 -1.398525698	 1.168147599
H	 -5.978435511	 -1.507720698	 2.529750599
C	 -3.555223000	 -0.145046000	 0.625060000
C	 -3.185554000	 1.196342000	 0.554092000
C	 -1.965326000	 1.566373000	 -0.005380000
C	 -1.113308000	 0.577738000	 -0.495979000
C	 -1.473895000	 -0.763769000	 -0.429408000
C	 -2.697757000	 -1.131256000	 0.132028000
O	 -3.000301000	 -2.456699000	 0.171874000
H	 -4.503836000	 -0.431942000	 1.060056000
H	 -3.857477000	 1.951677000	 0.939040000
H	 -1.682144000	 2.607902000	 -0.058619000
H	 -0.162195000	 0.849846000	 -0.933373000
H	 -0.822577000	 -1.539991000	 -0.806084000
H	 -3.872056000	 -2.569582000	 0.583707000
