16
0  1  0  1  0  1   3  13 -3.85308 -3.67906 -3.65231 -3.82633 -3.68290 -3.77011 -2.45216 -2.45256 -2.46273 -3.80984 -4.36721  3.59569 -1.10621 -1.93211
O	 -4.664890925	 -3.040299652	 2.674309039
H	 -5.468617925	 -3.547719652	 2.539714039
H	 -4.227624925	 -3.479090652	 3.407676039
C	 -3.555223000	 -0.145046000	 0.625060000
C	 -3.185554000	 1.196342000	 0.554092000
C	 -1.965326000	 1.566373000	 -0.005380000
C	 -1.113308000	 0.577738000	 -0.495979000
C	 -1.473895000	 -0.763769000	 -0.429408000
C	 -2.697757000	 -1.131256000	 0.132028000
O	 -3.000301000	 -2.456699000	 0.171874000
H	 -4.503836000	 -0.431942000	 1.060056000
H	 -3.857477000	 1.951677000	 0.939040000
H	 -1.682144000	 2.607902000	 -0.058619000
H	 -0.162195000	 0.849846000	 -0.933373000
H	 -0.822577000	 -1.539991000	 -0.806084000
H	 -3.872056000	 -2.569582000	 0.583707000
