16
0  1  0  1  0  1   3  13 -5.57188 -5.21072 -5.24330 -5.60446 -5.29392 -5.48446 -3.29197 -3.30165 -3.32773 -5.21224 -9.10337 10.77826 -3.43107 -3.45606
O	 -5.563635000	 -2.980593000	 1.367514000
H	 -6.225595000	 -3.395911000	 0.809941000
H	 -5.568121000	 -3.505089000	 2.171535000
C	 -4.482934750	 -0.135250350	 -0.402650700
C	 -4.329849750	 1.210755650	 -0.727992700
C	 -3.576202750	 1.590737650	 -1.835474700
C	 -2.973658750	 0.607423650	 -2.619092700
C	 -3.120959750	 -0.738630350	 -2.302019700
C	 -3.877071750	 -1.116093350	 -1.191203700
O	 -3.988424750	 -2.445611350	 -0.926814700
H	 -5.068873750	 -0.429881350	 0.458317300
H	 -4.803543750	 1.961861650	 -0.110213700
H	 -3.459785750	 2.635822650	 -2.084579700
H	 -2.385227750	 0.887266650	 -3.482463700
H	 -2.659097750	 -1.510811350	 -2.901219700
H	 -4.536117750	 -2.565406350	 -0.134358700
