19
0  1  0  1  0  1   3  16 -4.74558 -4.57057 -4.66774 -4.84275 -4.69319 -4.78539 -3.28155 -3.28568 -3.29927 -4.64089 -5.31885  4.13194 -1.44937 -2.00462
O	 -4.269289000	 -3.817885000	 -2.321871000
H	 -4.821090000	 -4.496489000	 -1.927428000
H	 -4.485563000	 -3.847979000	 -3.256159000
N	 -2.446062113	 -1.281398779	 -2.406449526
C	 -1.954442113	 2.256243221	 -2.352856526
C	 -3.243157113	 2.748651221	 -2.231729526
C	 -4.354225113	 1.883613221	 -2.161845526
C	 -4.197049113	 0.507306221	 -2.211879526
C	 -2.895961113	 0.010759221	 -2.334154526
C	 -1.760282113	 0.865396221	 -2.406378526
C	 -0.617022113	 0.021117221	 -2.524749526
C	 -1.078667113	 -1.275865779	 -2.520830526
H	 -1.110098113	 2.931398221	 -2.405486526
H	 -3.405272113	 3.817234221	 -2.189524526
H	 -5.347146113	 2.302071221	 -2.067473526
H	 -5.049505113	 -0.157161779	 -2.158280526
H	 0.413781887	 0.321882221	 -2.603025526
H	 -3.027998113	 -2.107548779	 -2.379868526
H	 -0.533989113	 -2.202479779	 -2.591273526
