19
0  1  0  1  0  1   3  16  6.13761  6.90229  6.12498  5.36030  6.06954  5.65668 11.36748 11.35105 11.34434  6.46462 -22.49670 50.67637 -13.83170 -7.88335
O	 -4.269289000	 -3.817885000	 -2.321871000
H	 -4.821090000	 -4.496489000	 -1.927428000
H	 -4.485563000	 -3.847979000	 -3.256159000
N	 -3.395557409	 -2.886484998	 -0.266011618
C	 -3.600970409	 -0.695483998	 2.547667382
C	 -4.809661409	 -0.048461998	 2.351834382
C	 -5.621027409	 -0.334477998	 1.234907382
C	 -5.238128409	 -1.274698998	 0.291085382
C	 -4.017937409	 -1.927547998	 0.489230382
C	 -3.183309409	 -1.654539998	 1.609164382
C	 -2.038145409	 -2.495152998	 1.483338382
C	 -2.207531409	 -3.227499998	 0.329963382
H	 -2.987562409	 -0.466494998	 3.409535382
H	 -5.141803409	 0.691641002	 3.067280382
H	 -6.559283409	 0.189602002	 1.112748382
H	 -5.860503409	 -1.494652998	 -0.566435618
H	 -1.195623409	 -2.558147998	 2.150669382
H	 -3.753760409	 -3.280398998	 -1.125314618
H	 -1.568132409	 -3.971122998	 -0.115506618
