19
0  1  0  1  0  1   3  16 -2.34359 -1.80223 -2.23895 -2.78031 -2.29078 -2.57896  1.44999  1.42885  1.41658 -1.96343 -17.70509 29.51977 -8.23254 -5.54557
O	 -4.269289000	 -3.817885000	 -2.321871000
H	 -4.821090000	 -4.496489000	 -1.927428000
H	 -4.485563000	 -3.847979000	 -3.256159000
N	 -4.090528819	 -1.497406820	 -1.144469287
C	 -5.497138819	 1.579563180	 0.001468713
C	 -6.823796819	 1.478559180	 -0.382850287
C	 -7.305498819	 0.339729180	 -1.060107287
C	 -6.467917819	 -0.721461820	 -1.366306287
C	 -5.128824819	 -0.619007820	 -0.978140287
C	 -4.621274819	 0.520938180	 -0.293812287
C	 -3.235165819	 0.278235180	 -0.062165287
C	 -2.953956819	 -0.959603820	 -0.595056287
H	 -5.140202819	 2.459504180	 0.520911713
H	 -7.507504819	 2.286851180	 -0.161174287
H	 -8.347712819	 0.293773180	 -1.345734287
H	 -6.837100819	 -1.595852820	 -1.886131287
H	 -2.530642819	 0.925550180	 0.431568713
H	 -4.151277819	 -2.398145820	 -1.599287287
H	 -2.024357819	 -1.502906820	 -0.625355287
