19
0  1  0  1  0  1   3  16 -5.75572 -5.51621 -5.67171 -5.91121 -5.69942 -5.83124 -3.95582 -3.96418 -3.98640 -5.58070 -7.70919  7.00532 -2.33254 -2.54430
O	 -4.269289000	 -3.817885000	 -2.321871000
H	 -4.821090000	 -4.496489000	 -1.927428000
H	 -4.485563000	 -3.847979000	 -3.256159000
N	 -2.632055401	 -1.749861314	 -0.899267008
C	 -2.256822401	 1.404433686	 0.734468992
C	 -3.532182401	 1.940848686	 0.674141992
C	 -4.593212401	 1.240635686	 0.064582992
C	 -4.398344401	 -0.011529314	 -0.497144008
C	 -3.110757401	 -0.552564314	 -0.435984008
C	 -2.025341401	 0.136506686	 0.174295992
C	 -0.881756401	 -0.706722314	 0.051651992
C	 -1.294603401	 -1.842972314	 -0.606976008
H	 -1.451035401	 1.952582686	 1.205383992
H	 -3.722689401	 2.915922686	 1.101776992
H	 -5.577011401	 1.689155686	 0.034994992
H	 -5.212387401	 -0.549462314	 -0.965156008
H	 0.117613599	 -0.509504314	 0.400230992
H	 -3.176630401	 -2.452964314	 -1.379855008
H	 -0.734105401	 -2.717491314	 -0.892124008
