19
0  1  0  1  0  1   3  16 -3.24668 -2.97872 -3.16301 -3.43096 -3.19149 -3.33690 -0.80734 -0.80783 -0.82433 -3.07183 -7.17774  9.40340 -2.23464 -3.06285
O	 -3.672430895	 -2.864921211	 -3.273935735
H	 -4.302765895	 -3.582313211	 -3.366669735
H	 -3.595164895	 -2.499679211	 -4.157791735
N	 -2.633039000	 -1.751090000	 -0.900115000
C	 -2.257806000	 1.403205000	 0.733621000
C	 -3.533166000	 1.939620000	 0.673294000
C	 -4.594196000	 1.239407000	 0.063735000
C	 -4.399328000	 -0.012758000	 -0.497992000
C	 -3.111741000	 -0.553793000	 -0.436832000
C	 -2.026325000	 0.135278000	 0.173448000
C	 -0.882740000	 -0.707951000	 0.050804000
C	 -1.295587000	 -1.844201000	 -0.607824000
H	 -1.452019000	 1.951354000	 1.204536000
H	 -3.723673000	 2.914694000	 1.100929000
H	 -5.577995000	 1.687927000	 0.034147000
H	 -5.213371000	 -0.550691000	 -0.966004000
H	 0.116630000	 -0.510733000	 0.399383000
H	 -3.177614000	 -2.454193000	 -1.380703000
H	 -0.735089000	 -2.718720000	 -0.892972000
