19
0  1  0  1  0  1   3  16 -2.14956 -1.60881 -2.09500 -2.63575 -2.14570 -2.43370  1.60667  1.58649  1.57536 -1.71746 -17.30800 29.37390 -8.25308 -5.53027
O	 -4.269289000	 -3.817885000	 -2.321871000
H	 -4.821090000	 -4.496489000	 -1.927428000
H	 -4.485563000	 -3.847979000	 -3.256159000
N	 -1.992662653	 -3.022489954	 -1.358757047
C	 0.063880347	 -0.636039954	 0.324975953
C	 -0.818453653	 0.394057046	 0.604817953
C	 -2.174514653	 0.320070046	 0.226311953
C	 -2.674577653	 -0.787557954	 -0.440416047
C	 -1.783501653	 -1.827105954	 -0.722663047
C	 -0.411048653	 -1.773533954	 -0.349980047
C	 0.183591347	 -2.991342954	 -0.794060047
C	 -0.812694653	 -3.721555954	 -1.401926047
H	 1.102613347	 -0.566549954	 0.621162953
H	 -0.464710653	 1.274647046	 1.123817953
H	 -2.836292653	 1.142881046	 0.460700953
H	 -3.715362653	 -0.844903954	 -0.731193047
H	 1.210031347	 -3.297057954	 -0.684054047
H	 -2.875148653	 -3.339565954	 -1.736331047
H	 -0.771483653	 -4.692964954	 -1.865517047
