19
0  1  0  1  0  1   3  16 -5.58930 -5.29022 -5.49430 -5.79338 -5.52732 -5.69173 -3.36225 -3.37379 -3.39888 -5.33388 -9.39731 10.39407 -3.22429 -3.10635
O	 -4.269289000	 -3.817885000	 -2.321871000
H	 -4.821090000	 -4.496489000	 -1.927428000
H	 -4.485563000	 -3.847979000	 -3.256159000
N	 -1.731261338	 -2.932805133	 -1.248968306
C	 0.325281662	 -0.546355133	 0.434764694
C	 -0.557052338	 0.483741867	 0.714606694
C	 -1.913113338	 0.409754867	 0.336100694
C	 -2.413176338	 -0.697873133	 -0.330627306
C	 -1.522100338	 -1.737421133	 -0.612874306
C	 -0.149647338	 -1.683849133	 -0.240191306
C	 0.444992662	 -2.901658133	 -0.684271306
C	 -0.551293338	 -3.631871133	 -1.292137306
H	 1.364014662	 -0.476865133	 0.730951694
H	 -0.203309338	 1.364331867	 1.233606694
H	 -2.574891338	 1.232565867	 0.570489694
H	 -3.453961338	 -0.755219133	 -0.621404306
H	 1.471432662	 -3.207373133	 -0.574265306
H	 -2.613747338	 -3.249881133	 -1.626542306
H	 -0.510082338	 -4.603280133	 -1.755728306
