19
0  1  0  1  0  1   3  16 -3.23484 -2.96546 -3.15091 -3.42029 -3.17948 -3.32569 -0.78522 -0.78573 -0.80229 -3.05788 -7.21267  9.48059 -2.24980 -3.07601
O	 -4.279743060	 -4.038082225	 -0.865985926
H	 -4.622098060	 -4.483709225	 -0.088307926
H	 -4.748624060	 -4.443037225	 -1.598608926
N	 -2.633039000	 -1.751090000	 -0.900115000
C	 -2.257806000	 1.403205000	 0.733621000
C	 -3.533166000	 1.939620000	 0.673294000
C	 -4.594196000	 1.239407000	 0.063735000
C	 -4.399328000	 -0.012758000	 -0.497992000
C	 -3.111741000	 -0.553793000	 -0.436832000
C	 -2.026325000	 0.135278000	 0.173448000
C	 -0.882740000	 -0.707951000	 0.050804000
C	 -1.295587000	 -1.844201000	 -0.607824000
H	 -1.452019000	 1.951354000	 1.204536000
H	 -3.723673000	 2.914694000	 1.100929000
H	 -5.577995000	 1.687927000	 0.034147000
H	 -5.213371000	 -0.550691000	 -0.966004000
H	 0.116630000	 -0.510733000	 0.399383000
H	 -3.177614000	 -2.454193000	 -1.380703000
H	 -0.735089000	 -2.718720000	 -0.892972000
