19
0  1  0  1  0  1   3  16 -5.59141 -5.39370 -5.51726 -5.71496 -5.54185 -5.65009 -4.04186 -4.04885 -4.06820 -5.49375 -6.67371  5.13597 -1.80485 -2.15116
O	 -4.269289000	 -3.817885000	 -2.321871000
H	 -4.821090000	 -4.496489000	 -1.927428000
H	 -4.485563000	 -3.847979000	 -3.256159000
N	 -1.556993795	 -2.873015252	 -1.175775812
C	 0.499549205	 -0.486565252	 0.507957188
C	 -0.382784795	 0.543531748	 0.787799188
C	 -1.738845795	 0.469544748	 0.409293188
C	 -2.238908795	 -0.638083252	 -0.257434812
C	 -1.347832795	 -1.677631252	 -0.539681812
C	 0.024620205	 -1.624059252	 -0.166998812
C	 0.619260205	 -2.841868252	 -0.611078812
C	 -0.377025795	 -3.572081252	 -1.218944812
H	 1.538282205	 -0.417075252	 0.804144188
H	 -0.029041795	 1.424121748	 1.306799188
H	 -2.400623795	 1.292355748	 0.643682188
H	 -3.279693795	 -0.695429252	 -0.548211812
H	 1.645700205	 -3.147583252	 -0.501072812
H	 -2.439479795	 -3.190091252	 -1.553349812
H	 -0.335814795	 -4.543490252	 -1.682535812
