19
0  1  0  1  0  1   3  16 -5.70944 -5.46558 -5.59193 -5.83578 -5.62140 -5.75561 -3.80702 -3.81685 -3.84119 -5.56376 -7.98689  7.40901 -2.39808 -2.58780
O	 -4.269289000	 -3.817885000	 -2.321871000
H	 -4.821090000	 -4.496489000	 -1.927428000
H	 -4.485563000	 -3.847979000	 -3.256159000
N	 -4.061026023	 -1.142472025	 -0.963823359
C	 -5.467636023	 1.934497975	 0.182114641
C	 -6.794294023	 1.833493975	 -0.202204359
C	 -7.275996023	 0.694663975	 -0.879461359
C	 -6.438415023	 -0.366527025	 -1.185660359
C	 -5.099322023	 -0.264073025	 -0.797494359
C	 -4.591772023	 0.875872975	 -0.113166359
C	 -3.205663023	 0.633169975	 0.118480641
C	 -2.924454023	 -0.604669025	 -0.414410359
H	 -5.110700023	 2.814438975	 0.701557641
H	 -7.478002023	 2.641785975	 0.019471641
H	 -8.318210023	 0.648707975	 -1.165088359
H	 -6.807598023	 -1.240918025	 -1.705485359
H	 -2.501140023	 1.280484975	 0.612214641
H	 -4.121775023	 -2.043211025	 -1.418641359
H	 -1.994855023	 -1.147972025	 -0.444709359
