19
0  1  0  1  0  1   3  16 -4.29895 -3.97050 -4.19442 -4.52287 -4.23272 -4.40814 -1.73993 -1.74826 -1.76646 -3.92094 -9.10550 12.30464 -3.59431 -3.52576
O	 -4.269289000	 -3.817885000	 -2.321871000
H	 -4.821090000	 -4.496489000	 -1.927428000
H	 -4.485563000	 -3.847979000	 -3.256159000
N	 -2.623389382	 -1.525732525	 -2.398164165
C	 -2.131769382	 2.011909475	 -2.344571165
C	 -3.420484382	 2.504317475	 -2.223444165
C	 -4.531552382	 1.639279475	 -2.153560165
C	 -4.374376382	 0.262972475	 -2.203594165
C	 -3.073288382	 -0.233574525	 -2.325869165
C	 -1.937609382	 0.621062475	 -2.398093165
C	 -0.794349382	 -0.223216525	 -2.516464165
C	 -1.255994382	 -1.520199525	 -2.512545165
H	 -1.287425382	 2.687064475	 -2.397201165
H	 -3.582599382	 3.572900475	 -2.181239165
H	 -5.524473382	 2.057737475	 -2.059188165
H	 -5.226832382	 -0.401495525	 -2.149995165
H	 0.236454618	 0.077548475	 -2.594740165
H	 -3.205325382	 -2.351882525	 -2.371583165
H	 -0.711316382	 -2.446813525	 -2.582988165
