19
0  1  0  1  0  1   3  16 -2.25873 -1.72336 -2.20856 -2.74393 -2.25756 -2.54322  1.43954  1.42130  1.41069 -1.80368 -16.92661 28.73916 -8.12384 -5.49239
O	 -4.269289000	 -3.817885000	 -2.321871000
H	 -4.821090000	 -4.496489000	 -1.927428000
H	 -4.485563000	 -3.847979000	 -3.256159000
N	 -2.852160879	 -2.024811349	 -1.089026994
C	 -2.476927879	 1.129483651	 0.544709006
C	 -3.752287879	 1.665898651	 0.484382006
C	 -4.813317879	 0.965685651	 -0.125176994
C	 -4.618449879	 -0.286479349	 -0.686903994
C	 -3.330862879	 -0.827514349	 -0.625743994
C	 -2.245446879	 -0.138443349	 -0.015463994
C	 -1.101861879	 -0.981672349	 -0.138107994
C	 -1.514708879	 -2.117922349	 -0.796735994
H	 -1.671140879	 1.677632651	 1.015624006
H	 -3.942794879	 2.640972651	 0.912017006
H	 -5.797116879	 1.414205651	 -0.154764994
H	 -5.432492879	 -0.824412349	 -1.154915994
H	 -0.102491879	 -0.784454349	 0.210471006
H	 -3.396735879	 -2.727914349	 -1.569614994
H	 -0.954210879	 -2.992441349	 -1.081883994
