19
0  1  0  1  0  1   3  16 -4.03332 -3.86797 -3.90373 -4.06908 -3.93680 -4.01331 -2.36927 -2.36830 -2.36839 -4.16860 -4.85334  3.87774 -0.92557 -2.26743
O	 -5.611682560	 -2.702415583	 -2.116887054
H	 -6.325094560	 -3.135401583	 -1.643453054
H	 -5.989418560	 -2.486818583	 -2.972110054
N	 -2.633039000	 -1.751090000	 -0.900115000
C	 -2.257806000	 1.403205000	 0.733621000
C	 -3.533166000	 1.939620000	 0.673294000
C	 -4.594196000	 1.239407000	 0.063735000
C	 -4.399328000	 -0.012758000	 -0.497992000
C	 -3.111741000	 -0.553793000	 -0.436832000
C	 -2.026325000	 0.135278000	 0.173448000
C	 -0.882740000	 -0.707951000	 0.050804000
C	 -1.295587000	 -1.844201000	 -0.607824000
H	 -1.452019000	 1.951354000	 1.204536000
H	 -3.723673000	 2.914694000	 1.100929000
H	 -5.577995000	 1.687927000	 0.034147000
H	 -5.213371000	 -0.550691000	 -0.966004000
H	 0.116630000	 -0.510733000	 0.399383000
H	 -3.177614000	 -2.454193000	 -1.380703000
H	 -0.735089000	 -2.718720000	 -0.892972000
