19
0  1  0  1  0  1   3  16 -4.52514 -4.38535 -4.46425 -4.60404 -4.48578 -4.55811 -3.31537 -3.31789 -3.32727 -4.47661 -4.56928  2.85954 -1.09475 -1.67212
O	 -4.269289000	 -3.817885000	 -2.321871000
H	 -4.821090000	 -4.496489000	 -1.927428000
H	 -4.485563000	 -3.847979000	 -3.256159000
N	 -3.100969643	 -2.579350140	 0.417734886
C	 -3.306382643	 -0.388349140	 3.231413886
C	 -4.515073643	 0.258672860	 3.035580886
C	 -5.326439643	 -0.027343140	 1.918653886
C	 -4.943540643	 -0.967564140	 0.974831886
C	 -3.723349643	 -1.620413140	 1.172976886
C	 -2.888721643	 -1.347405140	 2.292910886
C	 -1.743557643	 -2.188018140	 2.167084886
C	 -1.912943643	 -2.920365140	 1.013709886
H	 -2.692974643	 -0.159360140	 4.093281886
H	 -4.847215643	 0.998775860	 3.751026886
H	 -6.264695643	 0.496736860	 1.796494886
H	 -5.565915643	 -1.187518140	 0.117310886
H	 -0.901035643	 -2.251013140	 2.834415886
H	 -3.459172643	 -2.973264140	 -0.441568114
H	 -1.273544643	 -3.663988140	 0.568239886
