19
0  1  0  1  0  1   3  16 -1.57152 -1.07952 -1.50072 -1.99272 -1.54759 -1.80767  2.09942  2.08814  2.08164 -1.01036 -13.99611 25.12892 -6.92069 -5.22248
O	 -4.269289000	 -3.817885000	 -2.321871000
H	 -4.821090000	 -4.496489000	 -1.927428000
H	 -4.485563000	 -3.847979000	 -3.256159000
N	 -3.321910468	 -2.809701284	 -0.095074992
C	 -3.527323468	 -0.618700284	 2.718604008
C	 -4.736014468	 0.028321716	 2.522771008
C	 -5.547380468	 -0.257694284	 1.405844008
C	 -5.164481468	 -1.197915284	 0.462022008
C	 -3.944290468	 -1.850764284	 0.660167008
C	 -3.109662468	 -1.577756284	 1.780101008
C	 -1.964498468	 -2.418369284	 1.654275008
C	 -2.133884468	 -3.150716284	 0.500900008
H	 -2.913915468	 -0.389711284	 3.580472008
H	 -5.068156468	 0.768424716	 3.238217008
H	 -6.485636468	 0.266385716	 1.283685008
H	 -5.786856468	 -1.417869284	 -0.395498992
H	 -1.121976468	 -2.481364284	 2.321606008
H	 -3.680113468	 -3.203615284	 -0.954377992
H	 -1.494485468	 -3.894339284	 0.055430008
