19
0  1  0  1  0  1   3  16  6.07882  6.91019  6.05568  5.22431  5.99566  5.54142 11.32760 11.30261 11.28293  6.04176 -27.36501 57.86081 -16.13480 -8.31923
O	 -4.269289000	 -3.817885000	 -2.321871000
H	 -4.821090000	 -4.496489000	 -1.927428000
H	 -4.485563000	 -3.847979000	 -3.256159000
N	 -2.166930197	 -3.082279835	 -1.431949541
C	 -0.110387197	 -0.695829835	 0.251783459
C	 -0.992721197	 0.334267165	 0.531625459
C	 -2.348782197	 0.260280165	 0.153119459
C	 -2.848845197	 -0.847347835	 -0.513608541
C	 -1.957769197	 -1.886895835	 -0.795855541
C	 -0.585316197	 -1.833323835	 -0.423172541
C	 0.009323803	 -3.051132835	 -0.867252541
C	 -0.986962197	 -3.781345835	 -1.475118541
H	 0.928345803	 -0.626339835	 0.547970459
H	 -0.638978197	 1.214857165	 1.050625459
H	 -3.010560197	 1.083091165	 0.387508459
H	 -3.889630197	 -0.904693835	 -0.804385541
H	 1.035763803	 -3.356847835	 -0.757246541
H	 -3.049416197	 -3.399355835	 -1.809523541
H	 -0.945751197	 -4.752754835	 -1.938709541
