19
0  1  0  1  0  1   3  16 -5.01372 -4.81365 -4.90438 -5.10445 -4.93230 -5.03587 -3.21994 -3.22140 -3.23099 -4.93775 -6.31573  5.26487 -1.49088 -2.39601
O	 -2.844367240	 -4.392484699	 -2.242126446
H	 -3.131689240	 -5.221726699	 -1.854342446
H	 -2.796243240	 -4.573353699	 -3.183160446
N	 -2.633039000	 -1.751090000	 -0.900115000
C	 -2.257806000	 1.403205000	 0.733621000
C	 -3.533166000	 1.939620000	 0.673294000
C	 -4.594196000	 1.239407000	 0.063735000
C	 -4.399328000	 -0.012758000	 -0.497992000
C	 -3.111741000	 -0.553793000	 -0.436832000
C	 -2.026325000	 0.135278000	 0.173448000
C	 -0.882740000	 -0.707951000	 0.050804000
C	 -1.295587000	 -1.844201000	 -0.607824000
H	 -1.452019000	 1.951354000	 1.204536000
H	 -3.723673000	 2.914694000	 1.100929000
H	 -5.577995000	 1.687927000	 0.034147000
H	 -5.213371000	 -0.550691000	 -0.966004000
H	 0.116630000	 -0.510733000	 0.399383000
H	 -3.177614000	 -2.454193000	 -1.380703000
H	 -0.735089000	 -2.718720000	 -0.892972000
