19
0  1  0  1  0  1   3  16 -5.34109 -5.18244 -5.28336 -5.44201 -5.30473 -5.39007 -4.05402 -4.05903 -4.07319 -5.30404 -5.73198  3.59895 -1.37170 -1.79931
O	 -4.269289000	 -3.817885000	 -2.321871000
H	 -4.821090000	 -4.496489000	 -1.927428000
H	 -4.485563000	 -3.847979000	 -3.256159000
N	 -1.469860023	 -2.843120312	 -1.139179565
C	 0.586682977	 -0.456670312	 0.544553435
C	 -0.295651023	 0.573426688	 0.824395435
C	 -1.651712023	 0.499439688	 0.445889435
C	 -2.151775023	 -0.608188312	 -0.220838565
C	 -1.260699023	 -1.647736312	 -0.503085565
C	 0.111753977	 -1.594164312	 -0.130402565
C	 0.706393977	 -2.811973312	 -0.574482565
C	 -0.289892023	 -3.542186312	 -1.182348565
H	 1.625415977	 -0.387180312	 0.840740435
H	 0.058091977	 1.454016688	 1.343395435
H	 -2.313490023	 1.322250688	 0.680278435
H	 -3.192560023	 -0.665534312	 -0.511615565
H	 1.732833977	 -3.117688312	 -0.464476565
H	 -2.352346023	 -3.160196312	 -1.516753565
H	 -0.248681023	 -4.513595312	 -1.645939565
