19
0  1  0  1  0  1   3  16 -5.70448 -5.46198 -5.61719 -5.85968 -5.64542 -5.77920 -3.85607 -3.86513 -3.88863 -5.53523 -7.81898  7.22241 -2.37535 -2.56332
O	 -4.269289000	 -3.817885000	 -2.321871000
H	 -4.821090000	 -4.496489000	 -1.927428000
H	 -4.485563000	 -3.847979000	 -3.256159000
N	 -1.640984433	 -2.901831807	 -1.211051941
C	 0.415558567	 -0.515381807	 0.472681059
C	 -0.466775433	 0.514715193	 0.752523059
C	 -1.822836433	 0.440728193	 0.374017059
C	 -2.322899433	 -0.666899807	 -0.292710941
C	 -1.431823433	 -1.706447807	 -0.574957941
C	 -0.059370433	 -1.652875807	 -0.202274941
C	 0.535269567	 -2.870684807	 -0.646354941
C	 -0.461016433	 -3.600897807	 -1.254220941
H	 1.454291567	 -0.445891807	 0.768868059
H	 -0.113032433	 1.395305193	 1.271523059
H	 -2.484614433	 1.263539193	 0.608406059
H	 -3.363684433	 -0.724245807	 -0.583487941
H	 1.561709567	 -3.176399807	 -0.536348941
H	 -2.523470433	 -3.218907807	 -1.588625941
H	 -0.419805433	 -4.572306807	 -1.717811941
