19
0  1  0  1  0  1   3  16 -5.17729 -4.81794 -5.08835 -5.44769 -5.12561 -5.32095 -2.57440 -2.58718 -2.60884 -4.82691 -11.16034 14.35499 -4.29622 -3.72533
O	 -4.269289000	 -3.817885000	 -2.321871000
H	 -4.821090000	 -4.496489000	 -1.927428000
H	 -4.485563000	 -3.847979000	 -3.256159000
N	 -2.743091739	 -1.888565018	 -0.994994993
C	 -2.367858739	 1.265729982	 0.638741007
C	 -3.643218739	 1.802144982	 0.578414007
C	 -4.704248739	 1.101931982	 -0.031144993
C	 -4.509380739	 -0.150233018	 -0.592871993
C	 -3.221793739	 -0.691268018	 -0.531711993
C	 -2.136377739	 -0.002197018	 0.078568007
C	 -0.992792739	 -0.845426018	 -0.044075993
C	 -1.405639739	 -1.981676018	 -0.702703993
H	 -1.562071739	 1.813878982	 1.109656007
H	 -3.833725739	 2.777218982	 1.006049007
H	 -5.688047739	 1.550451982	 -0.060732993
H	 -5.323423739	 -0.688166018	 -1.060883993
H	 0.006577261	 -0.648208018	 0.304503007
H	 -3.287666739	 -2.591668018	 -1.475582993
H	 -0.845141739	 -2.856195018	 -0.987851993
