19
0  1  0  1  0  1   3  16 -5.63768 -5.44230 -5.56635 -5.76173 -5.59056 -5.69716 -4.13333 -4.13985 -4.15797 -5.53583 -6.59881  4.97045 -1.77221 -2.13525
O	 -4.269289000	 -3.817885000	 -2.321871000
H	 -4.821090000	 -4.496489000	 -1.927428000
H	 -4.485563000	 -3.847979000	 -3.256159000
N	 -2.579488029	 -1.684195521	 -0.853946992
C	 -2.204255029	 1.470099479	 0.779789008
C	 -3.479615029	 2.006514479	 0.719462008
C	 -4.540645029	 1.306301479	 0.109903008
C	 -4.345777029	 0.054136479	 -0.451823992
C	 -3.058190029	 -0.486898521	 -0.390663992
C	 -1.972774029	 0.202172479	 0.219616008
C	 -0.829189029	 -0.641056521	 0.096972008
C	 -1.242036029	 -1.777306521	 -0.561655992
H	 -1.398468029	 2.018248479	 1.250704008
H	 -3.670122029	 2.981588479	 1.147097008
H	 -5.524444029	 1.754821479	 0.080315008
H	 -5.159820029	 -0.483796521	 -0.919835992
H	 0.170180971	 -0.443838521	 0.445551008
H	 -3.124063029	 -2.387298521	 -1.334534992
H	 -0.681538029	 -2.651825521	 -0.846803992
