19
0  1  0  1  0  1   3  16 -5.31455 -5.15796 -5.23507 -5.39166 -5.25666 -5.34084 -3.98964 -3.99433 -4.00887 -5.29324 -5.78455  3.66501 -1.36945 -1.80425
O	 -4.269289000	 -3.817885000	 -2.321871000
H	 -4.821090000	 -4.496489000	 -1.927428000
H	 -4.485563000	 -3.847979000	 -3.256159000
N	 -4.046274626	 -0.965004627	 -0.873500394
C	 -5.452884626	 2.111965373	 0.272437606
C	 -6.779542626	 2.010961373	 -0.111881394
C	 -7.261244626	 0.872131373	 -0.789138394
C	 -6.423663626	 -0.189059627	 -1.095337394
C	 -5.084570626	 -0.086605627	 -0.707171394
C	 -4.577020626	 1.053340373	 -0.022843394
C	 -3.190911626	 0.810637373	 0.208803606
C	 -2.909702626	 -0.427201627	 -0.324087394
H	 -5.095948626	 2.991906373	 0.791880606
H	 -7.463250626	 2.819253373	 0.109794606
H	 -8.303458626	 0.826175373	 -1.074765394
H	 -6.792846626	 -1.063450627	 -1.615162394
H	 -2.486388626	 1.457952373	 0.702537606
H	 -4.107023626	 -1.865743627	 -1.328318394
H	 -1.980103626	 -0.970504627	 -0.354386394
