19
0  1  0  1  0  1   3  16 -5.10616 -4.74250 -5.01332 -5.37697 -5.05181 -5.24929 -2.44859 -2.46285 -2.48536 -4.76670 -11.37594 14.73293 -4.37147 -3.75222
O	 -4.269289000	 -3.817885000	 -2.321871000
H	 -4.821090000	 -4.496489000	 -1.927428000
H	 -4.485563000	 -3.847979000	 -3.256159000
N	 -1.818395110	 -2.962700073	 -1.285564553
C	 0.238147890	 -0.576250073	 0.398168447
C	 -0.644186110	 0.453846927	 0.678010447
C	 -2.000247110	 0.379859927	 0.299504447
C	 -2.500310110	 -0.727768073	 -0.367223553
C	 -1.609234110	 -1.767316073	 -0.649470553
C	 -0.236781110	 -1.713744073	 -0.276787553
C	 0.357858890	 -2.931553073	 -0.720867553
C	 -0.638427110	 -3.661766073	 -1.328733553
H	 1.276880890	 -0.506760073	 0.694355447
H	 -0.290443110	 1.334436927	 1.197010447
H	 -2.662025110	 1.202670927	 0.533893447
H	 -3.541095110	 -0.785114073	 -0.658000553
H	 1.384298890	 -3.237268073	 -0.610861553
H	 -2.700881110	 -3.279776073	 -1.663138553
H	 -0.597216110	 -4.633175073	 -1.792324553
