19
0  1  0  1  0  1   3  16 -4.73964 -4.47128 -4.63656 -4.90492 -4.67050 -4.81426 -2.60978 -2.61684 -2.63635 -4.46702 -7.50229  8.57435 -2.62804 -2.91104
O	 -4.269289000	 -3.817885000	 -2.321871000
H	 -4.821090000	 -4.496489000	 -1.927428000
H	 -4.485563000	 -3.847979000	 -3.256159000
N	 -3.211440056	 -2.694525712	 0.161329947
C	 -3.416853056	 -0.503524712	 2.975008947
C	 -4.625544056	 0.143497288	 2.779175947
C	 -5.436910056	 -0.142518712	 1.662248947
C	 -5.054011056	 -1.082739712	 0.718426947
C	 -3.833820056	 -1.735588712	 0.916571947
C	 -2.999192056	 -1.462580712	 2.036505947
C	 -1.854028056	 -2.303193712	 1.910679947
C	 -2.023414056	 -3.035540712	 0.757304947
H	 -2.803445056	 -0.274535712	 3.836876947
H	 -4.957686056	 0.883600288	 3.494621947
H	 -6.375166056	 0.381561288	 1.540089947
H	 -5.676386056	 -1.302693712	 -0.139094053
H	 -1.011506056	 -2.366188712	 2.578010947
H	 -3.569643056	 -3.088439712	 -0.697973053
H	 -1.384015056	 -3.779163712	 0.311834947
