19
0  1  0  1  0  1   3  16  5.63694  6.46615  5.67525  4.84603  5.61683  5.16236 10.90699 10.88375 10.86278  5.53553 -28.06044 57.99508 -16.06875 -8.33035
O	 -4.269289000	 -3.817885000	 -2.321871000
H	 -4.821090000	 -4.496489000	 -1.927428000
H	 -4.485563000	 -3.847979000	 -3.256159000
N	 -4.105280216	 -1.674874217	 -1.234792251
C	 -5.511890216	 1.402095783	 -0.088854251
C	 -6.838548216	 1.301091783	 -0.473173251
C	 -7.320250216	 0.162261783	 -1.150430251
C	 -6.482669216	 -0.898929217	 -1.456629251
C	 -5.143576216	 -0.796475217	 -1.068463251
C	 -4.636026216	 0.343470783	 -0.384135251
C	 -3.249917216	 0.100767783	 -0.152488251
C	 -2.968708216	 -1.137071217	 -0.685379251
H	 -5.154954216	 2.282036783	 0.430588749
H	 -7.522256216	 2.109383783	 -0.251497251
H	 -8.362464216	 0.116305783	 -1.436057251
H	 -6.851852216	 -1.773320217	 -1.976454251
H	 -2.545394216	 0.748082783	 0.341245749
H	 -4.166029216	 -2.575613217	 -1.689610251
H	 -2.039109216	 -1.680374217	 -0.715678251
