19
0  1  0  1  0  1   3  16 -5.57748 -5.38104 -5.47772 -5.67416 -5.50303 -5.61035 -3.98778 -3.99496 -4.01482 -5.50060 -6.75607  5.21546 -1.80286 -2.15713
O	 -4.269289000	 -3.817885000	 -2.321871000
H	 -4.821090000	 -4.496489000	 -1.927428000
H	 -4.485563000	 -3.847979000	 -3.256159000
N	 -4.053650325	 -1.053738326	 -0.918661876
C	 -5.460260325	 2.023231674	 0.227276124
C	 -6.786918325	 1.922227674	 -0.157042876
C	 -7.268620325	 0.783397674	 -0.834299876
C	 -6.431039325	 -0.277793326	 -1.140498876
C	 -5.091946325	 -0.175339326	 -0.752332876
C	 -4.584396325	 0.964606674	 -0.068004876
C	 -3.198287325	 0.721903674	 0.163642124
C	 -2.917078325	 -0.515935326	 -0.369248876
H	 -5.103324325	 2.903172674	 0.746719124
H	 -7.470626325	 2.730519674	 0.064633124
H	 -8.310834325	 0.737441674	 -1.119926876
H	 -6.800222325	 -1.152184326	 -1.660323876
H	 -2.493764325	 1.369218674	 0.657376124
H	 -4.114399325	 -1.954477326	 -1.373479876
H	 -1.987479325	 -1.059238326	 -0.399547876
