19
0  1  0  1  0  1   3  16 -5.61954 -5.32005 -5.48993 -5.78943 -5.52443 -5.68863 -3.34956 -3.36226 -3.38834 -5.39494 -9.56343 10.50383 -3.22105 -3.11429
O	 -4.269289000	 -3.817885000	 -2.321871000
H	 -4.821090000	 -4.496489000	 -1.927428000
H	 -4.485563000	 -3.847979000	 -3.256159000
N	 -4.068401722	 -1.231205724	 -1.008984841
C	 -5.475011722	 1.845764276	 0.136953159
C	 -6.801669722	 1.744760276	 -0.247365841
C	 -7.283371722	 0.605930276	 -0.924622841
C	 -6.445790722	 -0.455260724	 -1.230821841
C	 -5.106697722	 -0.352806724	 -0.842655841
C	 -4.599147722	 0.787139276	 -0.158327841
C	 -3.213038722	 0.544436276	 0.073319159
C	 -2.931829722	 -0.693402724	 -0.459571841
H	 -5.118075722	 2.725705276	 0.656396159
H	 -7.485377722	 2.553052276	 -0.025689841
H	 -8.325585722	 0.559974276	 -1.210249841
H	 -6.814973722	 -1.329651724	 -1.750646841
H	 -2.508515722	 1.191751276	 0.567053159
H	 -4.129150722	 -2.131944724	 -1.463802841
H	 -2.002230722	 -1.236705724	 -0.489870841
