19
0  1  0  1  0  1   3  16 -4.52501 -4.38531 -4.46421 -4.60391 -4.48575 -4.55802 -3.31533 -3.31785 -3.32723 -4.47657 -4.56920  2.85947 -1.09472 -1.67212
O	 -4.269289000	 -3.817885000	 -2.321871000
H	 -4.821090000	 -4.496489000	 -1.927428000
H	 -4.485563000	 -3.847979000	 -3.256159000
N	 -2.386953023	 -1.199954197	 -2.409211313
C	 -1.895333023	 2.337687803	 -2.355618313
C	 -3.184048023	 2.830095803	 -2.234491313
C	 -4.295116023	 1.965057803	 -2.164607313
C	 -4.137940023	 0.588750803	 -2.214641313
C	 -2.836852023	 0.092203803	 -2.336916313
C	 -1.701173023	 0.946840803	 -2.409140313
C	 -0.557913023	 0.102561803	 -2.527511313
C	 -1.019558023	 -1.194421197	 -2.523592313
H	 -1.050989023	 3.012842803	 -2.408248313
H	 -3.346163023	 3.898678803	 -2.192286313
H	 -5.288037023	 2.383515803	 -2.070235313
H	 -4.990396023	 -0.075717197	 -2.161042313
H	 0.472890977	 0.403326803	 -2.605787313
H	 -2.968889023	 -2.026104197	 -2.382630313
H	 -0.474880023	 -2.121035197	 -2.594035313
