19
0  1  0  1  0  1   3  16 -4.84575 -4.62809 -4.75276 -4.97042 -4.78239 -4.89847 -3.07770 -3.08336 -3.10084 -4.66578 -6.27254  5.95909 -1.94108 -2.41124
O	 -4.269289000	 -3.817885000	 -2.321871000
H	 -4.821090000	 -4.496489000	 -1.927428000
H	 -4.485563000	 -3.847979000	 -3.256159000
N	 -2.505171203	 -1.362843361	 -2.403687739
C	 -2.013551203	 2.174798639	 -2.350094739
C	 -3.302266203	 2.667206639	 -2.228967739
C	 -4.413334203	 1.802168639	 -2.159083739
C	 -4.256158203	 0.425861639	 -2.209117739
C	 -2.955070203	 -0.070685361	 -2.331392739
C	 -1.819391203	 0.783951639	 -2.403616739
C	 -0.676131203	 -0.060327361	 -2.521987739
C	 -1.137776203	 -1.357310361	 -2.518068739
H	 -1.169207203	 2.849953639	 -2.402724739
H	 -3.464381203	 3.735789639	 -2.186762739
H	 -5.406255203	 2.220626639	 -2.064711739
H	 -5.108614203	 -0.238606361	 -2.155518739
H	 0.354672797	 0.240437639	 -2.600263739
H	 -3.087107203	 -2.188993361	 -2.377106739
H	 -0.593098203	 -2.283924361	 -2.588511739
