19
0  1  0  1  0  1   3  16  2.31294  3.03262  2.56721  1.84754  2.50069  2.11513  8.03178  8.01802  7.99917  2.58730 -20.46910 38.12481 -7.20097 -7.86745
O	 -4.726566720	 -2.612152825	 -1.849183762
H	 -5.439978720	 -3.045138825	 -1.375749762
H	 -5.104302720	 -2.396555825	 -2.704406762
N	 -2.633039000	 -1.751090000	 -0.900115000
C	 -2.257806000	 1.403205000	 0.733621000
C	 -3.533166000	 1.939620000	 0.673294000
C	 -4.594196000	 1.239407000	 0.063735000
C	 -4.399328000	 -0.012758000	 -0.497992000
C	 -3.111741000	 -0.553793000	 -0.436832000
C	 -2.026325000	 0.135278000	 0.173448000
C	 -0.882740000	 -0.707951000	 0.050804000
C	 -1.295587000	 -1.844201000	 -0.607824000
H	 -1.452019000	 1.951354000	 1.204536000
H	 -3.723673000	 2.914694000	 1.100929000
H	 -5.577995000	 1.687927000	 0.034147000
H	 -5.213371000	 -0.550691000	 -0.966004000
H	 0.116630000	 -0.510733000	 0.399383000
H	 -3.177614000	 -2.454193000	 -1.380703000
H	 -0.735089000	 -2.718720000	 -0.892972000
