19
0  1  0  1  0  1   3  16 -5.64877 -5.35339 -5.55743 -5.85282 -5.58957 -5.75186 -3.47358 -3.48406 -3.50802 -5.38510 -9.23996 10.10533 -3.16713 -3.08334
O	 -4.269289000	 -3.817885000	 -2.321871000
H	 -4.821090000	 -4.496489000	 -1.927428000
H	 -4.485563000	 -3.847979000	 -3.256159000
N	 -2.688557169	 -1.820441852	 -0.947978993
C	 -2.313324169	 1.333853148	 0.685757007
C	 -3.588684169	 1.870268148	 0.625430007
C	 -4.649714169	 1.170055148	 0.015871007
C	 -4.454846169	 -0.082109852	 -0.545855993
C	 -3.167259169	 -0.623144852	 -0.484695993
C	 -2.081843169	 0.065926148	 0.125584007
C	 -0.938258169	 -0.777302852	 0.002940007
C	 -1.351105169	 -1.913552852	 -0.655687993
H	 -1.507537169	 1.882002148	 1.156672007
H	 -3.779191169	 2.845342148	 1.053065007
H	 -5.633513169	 1.618575148	 -0.013716993
H	 -5.268889169	 -0.620042852	 -1.013867993
H	 0.061111831	 -0.580084852	 0.351519007
H	 -3.233132169	 -2.523544852	 -1.428566993
H	 -0.790607169	 -2.788071852	 -0.940835993
