19
0  1  0  1  0  1   3  16 -4.84576 -4.62813 -4.75282 -4.97044 -4.78242 -4.89849 -3.07774 -3.08340 -3.10087 -4.66582 -6.27266  5.95922 -1.94113 -2.41124
O	 -4.269289000	 -3.817885000	 -2.321871000
H	 -4.821090000	 -4.496489000	 -1.927428000
H	 -4.485563000	 -3.847979000	 -3.256159000
N	 -3.174616585	 -2.656133855	 0.246798260
C	 -3.380029585	 -0.465132855	 3.060477260
C	 -4.588720585	 0.181889145	 2.864644260
C	 -5.400086585	 -0.104126855	 1.747717260
C	 -5.017187585	 -1.044347855	 0.803895260
C	 -3.796996585	 -1.697196855	 1.002040260
C	 -2.962368585	 -1.424188855	 2.121974260
C	 -1.817204585	 -2.264801855	 1.996148260
C	 -1.986590585	 -2.997148855	 0.842773260
H	 -2.766621585	 -0.236143855	 3.922345260
H	 -4.920862585	 0.921992145	 3.580090260
H	 -6.338342585	 0.419953145	 1.625558260
H	 -5.639562585	 -1.264301855	 -0.053625740
H	 -0.974682585	 -2.327796855	 2.663479260
H	 -3.532819585	 -3.050047855	 -0.612504740
H	 -1.347191585	 -3.740771855	 0.397303260
