19
0  1  0  1  0  1   3  16 -5.38428 -5.22730 -5.32881 -5.48580 -5.34992 -5.43399 -4.13892 -4.14362 -4.15669 -5.34409 -5.68564  3.47452 -1.34714 -1.78583
O	 -4.269289000	 -3.817885000	 -2.321871000
H	 -4.821090000	 -4.496489000	 -1.927428000
H	 -4.485563000	 -3.847979000	 -3.256159000
N	 -2.524953459	 -1.616072355	 -0.806930992
C	 -2.149720459	 1.538222645	 0.826805008
C	 -3.425080459	 2.074637645	 0.766478008
C	 -4.486110459	 1.374424645	 0.156919008
C	 -4.291242459	 0.122259645	 -0.404807992
C	 -3.003655459	 -0.418775355	 -0.343647992
C	 -1.918239459	 0.270295645	 0.266632008
C	 -0.774654459	 -0.572933355	 0.143988008
C	 -1.187501459	 -1.709183355	 -0.514639992
H	 -1.343933459	 2.086371645	 1.297720008
H	 -3.615587459	 3.049711645	 1.194113008
H	 -5.469909459	 1.822944645	 0.127331008
H	 -5.105285459	 -0.415673355	 -0.872819992
H	 0.224715541	 -0.375715355	 0.492567008
H	 -3.069528459	 -2.319175355	 -1.287518992
H	 -0.627003459	 -2.583702355	 -0.799787992
