19
0  1  0  1  0  1   3  16 -4.29895 -3.97053 -4.19445 -4.52288 -4.23278 -4.40817 -1.73995 -1.74829 -1.76649 -3.92098 -9.10570 12.30487 -3.59439 -3.52577
O	 -4.269289000	 -3.817885000	 -2.321871000
H	 -4.821090000	 -4.496489000	 -1.927428000
H	 -4.485563000	 -3.847979000	 -3.256159000
N	 -3.248263526	 -2.732917569	 0.075861634
C	 -3.453676526	 -0.541916569	 2.889540634
C	 -4.662367526	 0.105105431	 2.693707634
C	 -5.473733526	 -0.180910569	 1.576780634
C	 -5.090834526	 -1.121131569	 0.632958634
C	 -3.870643526	 -1.773980569	 0.831103634
C	 -3.036015526	 -1.500972569	 1.951037634
C	 -1.890851526	 -2.341585569	 1.825211634
C	 -2.060237526	 -3.073932569	 0.671836634
H	 -2.840268526	 -0.312927569	 3.751408634
H	 -4.994509526	 0.845208431	 3.409153634
H	 -6.411989526	 0.343169431	 1.454621634
H	 -5.713209526	 -1.341085569	 -0.224562366
H	 -1.048329526	 -2.404580569	 2.492542634
H	 -3.606466526	 -3.126831569	 -0.783441366
H	 -1.420838526	 -3.817555569	 0.226366634
