16
1  1  1  1  0  1   1  15 -28.59855 -28.30382 -28.78037 -29.07509 -28.78288 -28.97131 -27.29178 -27.29536 -27.34156 -28.63317 -11.25041  4.68608 -21.65106 -0.41777
Li	-1.1736752875	0.5808575985	2.2681992177
N	2.6788097819	-0.0919862115	0.0000000000
C	1.3185871331	0.1046141006	0.0000000000
C	0.7820370343	-1.1842432743	0.0000000000
N	1.7646665837	-2.1477612429	0.0000000000
C	2.8855213325	-1.4442516976	0.0000000000
C	-0.6212048911	-1.2684105366	0.0000000000
N	-1.3325246590	-0.1366765153	0.0000000000
C	-0.6739910516	1.0394913931	0.0000000000
N	0.6421576090	1.2582893587	0.0000000000
H	-1.3033278280	1.9203789500	0.0000000000
N	-1.2640536115	-2.4559535003	0.0000000000
H	3.3804780592	0.6308305630	0.0000000000
H	3.8773223427	-1.8664421088	0.0000000000
H	-0.7377488813	-3.3104283293	0.0000000000
H	-2.2677619110	-2.4692557364	0.0000000000
