16
1  1  1  1  0  1   1  15 27.61472 30.35562 29.49832 26.75742 29.48040 27.85906 37.92232 37.91697 37.80529 33.16527 -35.93291 105.26434 -30.00041 -6.16575
Na	0.4392139332	0.8874714571	1.7150928251
N	2.6788097819	-0.0919862115	0.0000000000
C	1.3185871331	0.1046141006	0.0000000000
C	0.7820370343	-1.1842432743	0.0000000000
N	1.7646665837	-2.1477612429	0.0000000000
C	2.8855213325	-1.4442516976	0.0000000000
C	-0.6212048911	-1.2684105366	0.0000000000
N	-1.3325246590	-0.1366765153	0.0000000000
C	-0.6739910516	1.0394913931	0.0000000000
N	0.6421576090	1.2582893587	0.0000000000
H	-1.3033278280	1.9203789500	0.0000000000
N	-1.2640536115	-2.4559535003	0.0000000000
H	3.3804780592	0.6308305630	0.0000000000
H	3.8773223427	-1.8664421088	0.0000000000
H	-0.7377488813	-3.3104283293	0.0000000000
H	-2.2677619110	-2.4692557364	0.0000000000
