16
1  1  1  1  0  1   1  15 -18.64638 -17.96066 -17.96010 -18.64582 -17.96802 -18.37177 -16.20484 -16.20831 -16.23651 -18.01157 -8.23323  9.30208 -17.43679 -1.64363
Na	-0.6132327102	-1.2390921274	2.3946212584
N	2.6788097819	-0.0919862115	0.0000000000
C	1.3185871331	0.1046141006	0.0000000000
C	0.7820370343	-1.1842432743	0.0000000000
N	1.7646665837	-2.1477612429	0.0000000000
C	2.8855213325	-1.4442516976	0.0000000000
C	-0.6212048911	-1.2684105366	0.0000000000
N	-1.3325246590	-0.1366765153	0.0000000000
C	-0.6739910516	1.0394913931	0.0000000000
N	0.6421576090	1.2582893587	0.0000000000
H	-1.3033278280	1.9203789500	0.0000000000
N	-1.2640536115	-2.4559535003	0.0000000000
H	3.3804780592	0.6308305630	0.0000000000
H	3.8773223427	-1.8664421088	0.0000000000
H	-0.7377488813	-3.3104283293	0.0000000000
H	-2.2677619110	-2.4692557364	0.0000000000
