16
1  1  1  1  0  1   1  15 -6.73609 -5.09345 -5.64340 -7.28605 -5.65556 -6.63489 -0.75638 -0.76201 -0.84902 -3.03559 -22.35696 46.86176 -23.82294 -3.71746
Na	0.5019587808	1.0142530938	1.9601060858
N	2.6788097819	-0.0919862115	0.0000000000
C	1.3185871331	0.1046141006	0.0000000000
C	0.7820370343	-1.1842432743	0.0000000000
N	1.7646665837	-2.1477612429	0.0000000000
C	2.8855213325	-1.4442516976	0.0000000000
C	-0.6212048911	-1.2684105366	0.0000000000
N	-1.3325246590	-0.1366765153	0.0000000000
C	-0.6739910516	1.0394913931	0.0000000000
N	0.6421576090	1.2582893587	0.0000000000
H	-1.3033278280	1.9203789500	0.0000000000
N	-1.2640536115	-2.4559535003	0.0000000000
H	3.3804780592	0.6308305630	0.0000000000
H	3.8773223427	-1.8664421088	0.0000000000
H	-0.7377488813	-3.3104283293	0.0000000000
H	-2.2677619110	-2.4692557364	0.0000000000
