16
1  1  1  1  0  1   1  15 -20.19828 -19.61689 -19.19107 -19.77246 -19.19873 -19.55397 -19.01765 -19.02372 -19.07954 -19.29268 -10.03780  7.61240 -15.57745 -1.28983
Na	-0.6226711980	-1.2581634452	2.4314777455
N	0.7718970457	0.8711862075	0.0000000000
C	-0.5883256031	1.0677865196	0.0000000000
C	-1.1248757019	-0.2210708553	0.0000000000
N	-0.1422461525	-1.1845888239	0.0000000000
C	0.9786085963	-0.4810792786	0.0000000000
C	-2.5281176273	-0.3052381176	0.0000000000
N	-3.2394373952	0.8264959037	0.0000000000
C	-2.5809037878	2.0026638121	0.0000000000
N	-1.2647551272	2.2214617777	0.0000000000
H	-3.2102405642	2.8835513690	0.0000000000
N	-3.1709663477	-1.4927810813	0.0000000000
H	1.4735653230	1.5940029820	0.0000000000
H	1.9704096065	-0.9032696898	0.0000000000
H	-2.6446616175	-2.3472559103	0.0000000000
H	-4.1746746472	-1.5060833174	0.0000000000
