14
1  1  1  1  0  1   1  13 -16.39043 -16.13056 -16.40323 -16.66310 -16.41813 -16.56592 -13.52354 -13.52939 -13.54400 -15.46188 -0.99771  6.75505 -20.75920 -0.46002
Li	1.1010246332	-0.7490199858	2.3064818548
C	1.1461184056	-0.8731536143	0.0000000000
C	-0.1020721441	-1.4040182931	0.0000000000
N	-1.1782377995	-0.5866048506	0.0000000000
C	-1.0925631306	0.8240597994	0.0000000000
N	0.1733684517	1.3544335393	0.0000000000
C	1.2208644414	0.5573119712	0.0000000000
O	-2.1263548678	1.4737907990	0.0000000000
N	2.4399377977	1.1484772781	0.0000000000
H	2.4794961312	2.1526932625	0.0000000000
H	3.2859226877	0.6122943811	0.0000000000
H	-0.2945175421	-2.4676284591	0.0000000000
H	2.0226197059	-1.5011294625	0.0000000000
H	-2.1167545233	-0.9563564915	0.0000000000
