14
1  1  1  1  0  1   1  13  6.94437  8.46983  8.16357  6.63810  8.15733  7.24750 14.48097 14.47646 14.40173 10.45069 -5.22115 69.78191 -51.10635 -3.00372
Li	0.4813556544	0.7075704825	1.4822542836
C	1.1461184056	-0.8731536143	0.0000000000
C	-0.1020721441	-1.4040182931	0.0000000000
N	-1.1782377995	-0.5866048506	0.0000000000
C	-1.0925631306	0.8240597994	0.0000000000
N	0.1733684517	1.3544335393	0.0000000000
C	1.2208644414	0.5573119712	0.0000000000
O	-2.1263548678	1.4737907990	0.0000000000
N	2.4399377977	1.1484772781	0.0000000000
H	2.4794961312	2.1526932625	0.0000000000
H	3.2859226877	0.6122943811	0.0000000000
H	-0.2945175421	-2.4676284591	0.0000000000
H	2.0226197059	-1.5011294625	0.0000000000
H	-2.1167545233	-0.9563564915	0.0000000000
