14
-1  1 -1  1  0  1   1  13  0.24003  0.47754  1.02633  0.78883  0.98256  0.85460  5.30595  5.29874  5.26092 -3.10072 -0.22814 18.14301 -14.71964 -6.29595
F	-1.2352916004	0.8403609412	2.5877510600
C	1.1461184056	-0.8731536143	0.0000000000
C	-0.1020721441	-1.4040182931	0.0000000000
N	-1.1782377995	-0.5866048506	0.0000000000
C	-1.0925631306	0.8240597994	0.0000000000
N	0.1733684517	1.3544335393	0.0000000000
C	1.2208644414	0.5573119712	0.0000000000
O	-2.1263548678	1.4737907990	0.0000000000
N	2.4399377977	1.1484772781	0.0000000000
H	2.4794961312	2.1526932625	0.0000000000
H	3.2859226877	0.6122943811	0.0000000000
H	-0.2945175421	-2.4676284591	0.0000000000
H	2.0226197059	-1.5011294625	0.0000000000
H	-2.1167545233	-0.9563564915	0.0000000000
