14
-1  1 -1  1  0  1   1  13 -6.57128 -6.41281 -5.69635 -5.85482 -5.73703 -5.81364 -3.92048 -3.92708 -3.94725 -9.49106 -3.17814 10.23953 -11.50506 -5.04738
F	0.0000000000	0.0000000000	2.8464097447
C	1.1461184056	-0.8731536143	0.0000000000
C	-0.1020721441	-1.4040182931	0.0000000000
N	-1.1782377995	-0.5866048506	0.0000000000
C	-1.0925631306	0.8240597994	0.0000000000
N	0.1733684517	1.3544335393	0.0000000000
C	1.2208644414	0.5573119712	0.0000000000
O	-2.1263548678	1.4737907990	0.0000000000
N	2.4399377977	1.1484772781	0.0000000000
H	2.4794961312	2.1526932625	0.0000000000
H	3.2859226877	0.6122943811	0.0000000000
H	-0.2945175421	-2.4676284591	0.0000000000
H	2.0226197059	-1.5011294625	0.0000000000
H	-2.1167545233	-0.9563564915	0.0000000000
