17
1  1  1  1  0  1   1  16 -25.10463 -24.78050 -24.79692 -25.12105 -24.79614 -24.99152 -23.73879 -23.74209 -23.75996 -24.16459 -6.11831  5.26793 -22.81025 -0.50396
Li	1.3201878076	0.1517563692	2.3016901462
N	2.6913091229	-0.7231697002	0.0000000000
C	3.1808607528	0.5024364086	0.0000000000
N	2.2027709360	1.4652152041	0.0000000000
C	1.0012581077	0.8148069356	0.0000000000
C	1.3298732339	-0.5383946758	0.0000000000
N	-0.2189426853	1.4121192910	0.0000000000
C	-1.1881977222	0.5336941631	0.0000000000
C	0.2644720793	-1.5018993708	0.0000000000
N	-0.9874050564	-0.8191539073	0.0000000000
O	0.2849111346	-2.7203905785	0.0000000000
N	-2.4791305940	0.9639219949	0.0000000000
H	4.2283363138	0.7543997336	0.0000000000
H	2.3266818979	2.4649408028	0.0000000000
H	-1.7815490940	-1.4453644568	0.0000000000
H	-2.6390713642	1.9539159338	0.0000000000
H	-3.2577778048	0.3348220026	0.0000000000
