17
1  1  1  1  0  1   1  16 -24.80050 -24.33972 -24.88313 -25.34391 -24.88650 -25.17056 -21.72188 -21.72696 -21.77348 -24.50755 -5.96483 11.28215 -29.02886 -0.79602
Li	-0.1345898096	1.1708492140	2.0413247895
N	2.6913091229	-0.7231697002	0.0000000000
C	3.1808607528	0.5024364086	0.0000000000
N	2.2027709360	1.4652152041	0.0000000000
C	1.0012581077	0.8148069356	0.0000000000
C	1.3298732339	-0.5383946758	0.0000000000
N	-0.2189426853	1.4121192910	0.0000000000
C	-1.1881977222	0.5336941631	0.0000000000
C	0.2644720793	-1.5018993708	0.0000000000
N	-0.9874050564	-0.8191539073	0.0000000000
O	0.2849111346	-2.7203905785	0.0000000000
N	-2.4791305940	0.9639219949	0.0000000000
H	4.2283363138	0.7543997336	0.0000000000
H	2.3266818979	2.4649408028	0.0000000000
H	-1.7815490940	-1.4453644568	0.0000000000
H	-2.6390713642	1.9539159338	0.0000000000
H	-3.2577778048	0.3348220026	0.0000000000
