17
-1  1 -1  1  0  1   1  16 21.80911 23.79423 20.71389 18.72876 20.62918 19.49001 39.35404 39.34813 39.25216 18.75749 -64.07984 128.33470 -26.96807 -18.52929
Cl	1.2832417712	0.1475094005	2.2372763352
N	0.5872305923	-1.0315262795	0.0000000000
C	1.0767822222	0.1940798293	0.0000000000
N	0.0986924054	1.1568586248	0.0000000000
C	-1.1028204229	0.5064503563	0.0000000000
C	-0.7742052967	-0.8467512551	0.0000000000
N	-2.3230212159	1.1037627117	0.0000000000
C	-3.2922762528	0.2253375838	0.0000000000
C	-1.8396064513	-1.8102559501	0.0000000000
N	-3.0914835870	-1.1275104866	0.0000000000
O	-1.8191673960	-3.0287471578	0.0000000000
N	-4.5832091246	0.6555654156	0.0000000000
H	2.1242577832	0.4460431543	0.0000000000
H	0.2226033673	2.1565842235	0.0000000000
H	-3.8856276246	-1.7537210361	0.0000000000
H	-4.7431498948	1.6455593545	0.0000000000
H	-5.3618563354	0.0264654233	0.0000000000
