17
-1  1 -1  1  0  1   1  16 27.38366 28.97554 25.53262 23.94074 25.47542 24.55224 45.91538 45.90833 45.82311 24.62204 -38.56780 98.26226 -17.60902 -17.46340
Cl	0.1541170920	-1.3407246548	2.3374952480
N	0.5872305923	-1.0315262795	0.0000000000
C	1.0767822222	0.1940798293	0.0000000000
N	0.0986924054	1.1568586248	0.0000000000
C	-1.1028204229	0.5064503563	0.0000000000
C	-0.7742052967	-0.8467512551	0.0000000000
N	-2.3230212159	1.1037627117	0.0000000000
C	-3.2922762528	0.2253375838	0.0000000000
C	-1.8396064513	-1.8102559501	0.0000000000
N	-3.0914835870	-1.1275104866	0.0000000000
O	-1.8191673960	-3.0287471578	0.0000000000
N	-4.5832091246	0.6555654156	0.0000000000
H	2.1242577832	0.4460431543	0.0000000000
H	0.2226033673	2.1565842235	0.0000000000
H	-3.8856276246	-1.7537210361	0.0000000000
H	-4.7431498948	1.6455593545	0.0000000000
H	-5.3618563354	0.0264654233	0.0000000000
