16
1  1  1  1  0  1   1  15 -11.98455 -11.66057 -12.51671 -12.84069 -12.53371 -12.73201 -7.70984 -7.71871 -7.76808 -12.44958  6.75832  3.21795 -21.96287 -0.46298
Li	0.0000000000	0.0000000000	2.2340612839
C	1.4285373529	0.2835624128	0.0000000000
C	0.5105869785	1.2750246502	0.0000000000
N	-0.8430100059	1.0314320283	0.0000000000
C	-1.3950437470	-0.2330302641	0.0000000000
N	-0.4394990250	-1.2294621941	0.0000000000
C	0.9521799514	-1.0945216057	0.0000000000
H	-1.5071309305	1.7886795183	0.0000000000
O	-2.5953635291	-0.4420429032	0.0000000000
H	-0.7977998958	-2.1757479331	0.0000000000
O	1.6722973017	-2.0833992387	0.0000000000
H	0.7924709614	2.3192355197	0.0000000000
C	2.9027710149	0.5168501456	0.0000000000
H	3.1264572236	1.5822538075	0.0000000000
H	3.3607860456	0.0581058332	-0.8757040690
H	3.3607860456	0.0581058332	0.8757040690
