16
-1  1 -1  1  0  1   1  15 -4.64846 -4.02523 -4.53855 -5.16178 -4.58902 -4.92616  2.42257  2.41664  2.40239 -5.53052 -15.79794 28.06350 -9.18628 -8.60980
Cl	-1.6090391120	-0.2942795450	2.8331646518
C	1.4285373529	0.2835624128	0.0000000000
C	0.5105869785	1.2750246502	0.0000000000
N	-0.8430100059	1.0314320283	0.0000000000
C	-1.3950437470	-0.2330302641	0.0000000000
N	-0.4394990250	-1.2294621941	0.0000000000
C	0.9521799514	-1.0945216057	0.0000000000
H	-1.5071309305	1.7886795183	0.0000000000
O	-2.5953635291	-0.4420429032	0.0000000000
H	-0.7977998958	-2.1757479331	0.0000000000
O	1.6722973017	-2.0833992387	0.0000000000
H	0.7924709614	2.3192355197	0.0000000000
C	2.9027710149	0.5168501456	0.0000000000
H	3.1264572236	1.5822538075	0.0000000000
H	3.3607860456	0.0581058332	-0.8757040690
H	3.3607860456	0.0581058332	0.8757040690
