13
1  1  1  1  0  1   1  12 -8.77452 -8.36632 -8.76684 -9.17503 -8.78142 -9.02425 -5.99872 -6.00737 -6.04357 -9.05111  0.29702  4.32770 -12.65338 -1.02245
Na	-0.5632629860	1.3523921222	2.5374571782
N	0.1539176570	1.3049153619	-0.0000073915
H	0.3020891131	2.3238962770	-0.0000207229
C	-1.1571795613	0.8599707976	-0.0000073915
O	-2.0993462200	1.6552690749	0.0001600707
C	-1.3156778316	-0.5782861111	-0.0000016938
H	-2.3087374379	-0.9922829230	0.0000291928
C	-0.2185666035	-1.3638520024	-0.0000016938
H	-0.2740130218	-2.4423150098	0.0000130633
N	1.0385231791	-0.8330631229	0.0000122000
H	1.8550174087	-1.4218398181	0.0000332372
C	1.3002430210	0.5316730371	0.0000051691
O	2.4275454697	0.9788016727	0.0000264826
