13
-1  1 -1  1  0  1   1  12 -8.61571 -8.44655 -7.67904 -7.84820 -7.70894 -7.79528 -5.90431 -5.90874 -5.92258 -11.02327 -6.30175 10.83382 -11.00411 -4.55123
F	-0.6126326207	1.4709284128	2.7598636507
N	0.1539176570	1.3049153619	-0.0000073915
H	0.3020891131	2.3238962770	-0.0000207229
C	-1.1571795613	0.8599707976	-0.0000073915
O	-2.0993462200	1.6552690749	0.0001600707
C	-1.3156778316	-0.5782861111	-0.0000016938
H	-2.3087374379	-0.9922829230	0.0000291928
C	-0.2185666035	-1.3638520024	-0.0000016938
H	-0.2740130218	-2.4423150098	0.0000130633
N	1.0385231791	-0.8330631229	0.0000122000
H	1.8550174087	-1.4218398181	0.0000332372
C	1.3002430210	0.5316730371	0.0000051691
O	2.4275454697	0.9788016727	0.0000264826
