13
-1  1 -1  1  0  1   1  12 -6.33757 -5.66698 -6.42952 -7.10011 -6.48130 -6.85081  0.64975  0.64266  0.61477 -6.43270 -17.44639 28.03295 -9.19059 -7.82867
Cl	-1.5309071448	-0.6376188594	2.8724037824
N	0.1539176570	1.3049153619	-0.0000073915
H	0.3020891131	2.3238962770	-0.0000207229
C	-1.1571795613	0.8599707976	-0.0000073915
O	-2.0993462200	1.6552690749	0.0001600707
C	-1.3156778316	-0.5782861111	-0.0000016938
H	-2.3087374379	-0.9922829230	0.0000291928
C	-0.2185666035	-1.3638520024	-0.0000016938
H	-0.2740130218	-2.4423150098	0.0000130633
N	1.0385231791	-0.8330631229	0.0000122000
H	1.8550174087	-1.4218398181	0.0000332372
C	1.3002430210	0.5316730371	0.0000051691
O	2.4275454697	0.9788016727	0.0000264826
