13
-1  1 -1  1  0  1   1  12 -13.66752 -13.16666 -13.36572 -13.86658 -13.41226 -13.68012 -9.75755 -9.76118 -9.77352 -14.28524 -18.19973 18.19533 -7.95331 -6.32752
Cl	0.6568298907	-1.5770379764	2.9589563792
N	0.1539176570	1.3049153619	-0.0000073915
H	0.3020891131	2.3238962770	-0.0000207229
C	-1.1571795613	0.8599707976	-0.0000073915
O	-2.0993462200	1.6552690749	0.0001600707
C	-1.3156778316	-0.5782861111	-0.0000016938
H	-2.3087374379	-0.9922829230	0.0000291928
C	-0.2185666035	-1.3638520024	-0.0000016938
H	-0.2740130218	-2.4423150098	0.0000130633
N	1.0385231791	-0.8330631229	0.0000122000
H	1.8550174087	-1.4218398181	0.0000332372
C	1.3002430210	0.5316730371	0.0000051691
O	2.4275454697	0.9788016727	0.0000264826
