13
-1  1 -1  1  0  1   1  12 -0.60836 -0.54495 -0.41081 -0.47421 -0.44422 -0.47209  1.00915  1.00186  0.97689 -1.11300  3.92017  1.68258 -5.30959 -1.40615
F	-1.9776214862	0.1303158734	3.4327706855
C	-0.7055268736	1.2013143178	-0.0008697528
H	-1.2537284572	2.1336020566	-0.0064738288
C	-1.3940317086	-0.0097681196	-0.0008697528
H	-2.4752581559	-0.0172340028	-0.0125219496
C	-0.6881944700	-1.2111949521	0.0013777194
H	-1.2229764286	-2.1513904822	-0.0012609539
C	0.7053795311	-1.2019897273	0.0013777194
H	1.2527879688	-2.1350113441	0.0032426660
C	1.3940828758	0.0099385716	-0.0011112830
H	2.4758036939	0.0176131273	0.0000835702
C	0.6882906452	1.2116999096	0.0000953498
H	1.2223735760	2.1524131868	0.0001803919
