13
-1  1 -1  1  0  1   1  12 -0.50658 -0.23823 -0.77310 -1.04146 -0.82439 -0.95751  3.62645  3.62131  3.60322 -0.86658  0.74965  7.88473 -5.64408 -3.85688
Cl	-1.9080119659	0.1257289362	3.3119419413
C	-0.7055268736	1.2013143178	-0.0008697528
H	-1.2537284572	2.1336020566	-0.0064738288
C	-1.3940317086	-0.0097681196	-0.0008697528
H	-2.4752581559	-0.0172340028	-0.0125219496
C	-0.6881944700	-1.2111949521	0.0013777194
H	-1.2229764286	-2.1513904822	-0.0012609539
C	0.7053795311	-1.2019897273	0.0013777194
H	1.2527879688	-2.1350113441	0.0032426660
C	1.3940828758	0.0099385716	-0.0011112830
H	2.4758036939	0.0176131273	0.0000835702
C	0.6882906452	1.2116999096	0.0000953498
H	1.2223735760	2.1524131868	0.0001803919
