10
1  1  1  1  0  1   1   9  1.98232  2.01194  1.72633  1.69672  1.72632  1.69983  4.06601  4.06601  4.04377  1.98935 12.24574  0.58234 -10.68392 -0.15480
Li	1.5207328253	-0.1424926549	2.6455240404
N	0.7282770198	-1.1636581093	0.0000000000
C	-0.5922112626	-1.1156867898	0.0000000000
N	-1.3718959745	-0.0488773419	0.0000000000
C	-0.6701074347	1.0707134247	0.0000000000
N	0.6436189854	1.2125354516	0.0000000000
C	1.2623187298	0.0449733600	0.0000000000
F	-1.3657122769	2.1821670884	0.0000000000
F	2.5726682765	0.0916579611	0.0000000000
F	-1.2069560368	-2.2738250452	0.0000000000
