10
1  1  1  1  0  1   1   9  3.85327  4.20162  4.02230  3.67395  4.02230  3.79521  7.55672  7.55672  7.49582  5.59393 17.86654 11.79618 -23.28047 -0.78832
Li	-1.1482603573	0.1075919873	1.9975569207
N	0.7282770198	-1.1636581093	0.0000000000
C	-0.5922112626	-1.1156867898	0.0000000000
N	-1.3718959745	-0.0488773419	0.0000000000
C	-0.6701074347	1.0707134247	0.0000000000
N	0.6436189854	1.2125354516	0.0000000000
C	1.2623187298	0.0449733600	0.0000000000
F	-1.3657122769	2.1821670884	0.0000000000
F	2.5726682765	0.0916579611	0.0000000000
F	-1.2069560368	-2.2738250452	0.0000000000
