10
1  1  1  1  0  1   1   9  1.89850  1.91544  1.66077  1.64383  1.66076  1.64275  3.67894  3.67894  3.65945  1.90321 10.64402  0.31856 -8.94568 -0.11368
Li	1.6007713951	-0.1499922684	2.7847621478
N	0.7282770198	-1.1636581093	0.0000000000
C	-0.5922112626	-1.1156867898	0.0000000000
N	-1.3718959745	-0.0488773419	0.0000000000
C	-0.6701074347	1.0707134247	0.0000000000
N	0.6436189854	1.2125354516	0.0000000000
C	1.2623187298	0.0449733600	0.0000000000
F	-1.3657122769	2.1821670884	0.0000000000
F	2.5726682765	0.0916579611	0.0000000000
F	-1.2069560368	-2.2738250452	0.0000000000
