10
1  1  1  1  0  1   1   9  4.28395  4.58887  4.35259  4.04766  4.35257  4.15196  8.05930  8.05930  8.00161  5.53870 19.15294  9.61390 -22.51870 -0.70944
Li	0.1092518504	1.1659749717	2.0283739311
N	0.7282770198	-1.1636581093	0.0000000000
C	-0.5922112626	-1.1156867898	0.0000000000
N	-1.3718959745	-0.0488773419	0.0000000000
C	-0.6701074347	1.0707134247	0.0000000000
N	0.6436189854	1.2125354516	0.0000000000
C	1.2623187298	0.0449733600	0.0000000000
F	-1.3657122769	2.1821670884	0.0000000000
F	2.5726682765	0.0916579611	0.0000000000
F	-1.2069560368	-2.2738250452	0.0000000000
