10
1  1  1  1  0  1   1   9  4.93380  5.00919  4.68147  4.60608  4.68146  4.61469  7.06859  7.06859  7.01363  5.00083 15.93846  0.52879 -11.28646 -0.17996
Li	0.0000000000	0.0000000000	2.6713730670
N	0.7282770198	-1.1636581093	0.0000000000
C	-0.5922112626	-1.1156867898	0.0000000000
N	-1.3718959745	-0.0488773419	0.0000000000
C	-0.6701074347	1.0707134247	0.0000000000
N	0.6436189854	1.2125354516	0.0000000000
C	1.2623187298	0.0449733600	0.0000000000
F	-1.3657122769	2.1821670884	0.0000000000
F	2.5726682765	0.0916579611	0.0000000000
F	-1.2069560368	-2.2738250452	0.0000000000
