10
1  1  1  1  0  1   1   9  6.25557  6.49532  6.06280  5.82305  6.06281  5.89365  9.80180  9.80180  9.72940  6.59033 24.10371  3.77984 -20.74924 -0.54399
Li	0.0000000000	0.0000000000	2.1370984536
N	0.7282770198	-1.1636581093	0.0000000000
C	-0.5922112626	-1.1156867898	0.0000000000
N	-1.3718959745	-0.0488773419	0.0000000000
C	-0.6701074347	1.0707134247	0.0000000000
N	0.6436189854	1.2125354516	0.0000000000
C	1.2623187298	0.0449733600	0.0000000000
F	-1.3657122769	2.1821670884	0.0000000000
F	2.5726682765	0.0916579611	0.0000000000
F	-1.2069560368	-2.2738250452	0.0000000000
