10
1  1  1  1  0  1   1   9  5.74828  6.12092  5.83963  5.46698  5.83960  5.60998  9.54637  9.54637  9.51271  6.11048 14.34020  5.49445 -12.51837 -1.20580
Na	1.3936441874	-0.1305844505	2.4244358641
N	0.7282770198	-1.1636581093	0.0000000000
C	-0.5922112626	-1.1156867898	0.0000000000
N	-1.3718959745	-0.0488773419	0.0000000000
C	-0.6701074347	1.0707134247	0.0000000000
N	0.6436189854	1.2125354516	0.0000000000
C	1.2623187298	0.0449733600	0.0000000000
F	-1.3657122769	2.1821670884	0.0000000000
F	2.5726682765	0.0916579611	0.0000000000
F	-1.2069560368	-2.2738250452	0.0000000000
