10
1  1  1  1  0  1   1   9  0.94455  1.18303  1.04785  0.80937  1.04783  0.88305  3.22284  3.22284  3.15901  1.47579  8.68327  2.71646 -9.24601 -0.67793
Na	-1.5412658657	0.1444166007	2.6812440900
N	0.7282770198	-1.1636581093	0.0000000000
C	-0.5922112626	-1.1156867898	0.0000000000
N	-1.3718959745	-0.0488773419	0.0000000000
C	-0.6701074347	1.0707134247	0.0000000000
N	0.6436189854	1.2125354516	0.0000000000
C	1.2623187298	0.0449733600	0.0000000000
F	-1.3657122769	2.1821670884	0.0000000000
F	2.5726682765	0.0916579611	0.0000000000
F	-1.2069560368	-2.2738250452	0.0000000000
