10
1  1  1  1  0  1   1   9 57.28374 59.36055 59.02805 56.95123 59.02805 57.77152 67.62119 67.62119 67.48875 58.83338 15.05932 73.39159 -24.34573 -5.27179
Na	1.0135594090	-0.0949705094	1.7632260830
N	0.7282770198	-1.1636581093	0.0000000000
C	-0.5922112626	-1.1156867898	0.0000000000
N	-1.3718959745	-0.0488773419	0.0000000000
C	-0.6701074347	1.0707134247	0.0000000000
N	0.6436189854	1.2125354516	0.0000000000
C	1.2623187298	0.0449733600	0.0000000000
F	-1.3657122769	2.1821670884	0.0000000000
F	2.5726682765	0.0916579611	0.0000000000
F	-1.2069560368	-2.2738250452	0.0000000000
