10
1  1  1  1  0  1   1   9 118.82490 122.26889 122.03446 118.59047 122.03443 119.93170 133.18998 133.18999 132.92523 119.18430  2.45816 157.25873 -32.15030 -8.38229
Na	0.8868644829	-0.0830991958	1.5428228226
N	0.7282770198	-1.1636581093	0.0000000000
C	-0.5922112626	-1.1156867898	0.0000000000
N	-1.3718959745	-0.0488773419	0.0000000000
C	-0.6701074347	1.0707134247	0.0000000000
N	0.6436189854	1.2125354516	0.0000000000
C	1.2623187298	0.0449733600	0.0000000000
F	-1.3657122769	2.1821670884	0.0000000000
F	2.5726682765	0.0916579611	0.0000000000
F	-1.2069560368	-2.2738250452	0.0000000000
