10
1  1  1  1  0  1   1   9  0.49115  0.59457  0.47906  0.37565  0.47904  0.40137  1.98286  1.98286  1.94043  0.71851  6.94993  0.82126 -6.69694 -0.35575
Na	-1.7125176286	0.1604628896	2.9791601000
N	0.7282770198	-1.1636581093	0.0000000000
C	-0.5922112626	-1.1156867898	0.0000000000
N	-1.3718959745	-0.0488773419	0.0000000000
C	-0.6701074347	1.0707134247	0.0000000000
N	0.6436189854	1.2125354516	0.0000000000
C	1.2623187298	0.0449733600	0.0000000000
F	-1.3657122769	2.1821670884	0.0000000000
F	2.5726682765	0.0916579611	0.0000000000
F	-1.2069560368	-2.2738250452	0.0000000000
