10
1  1  1  1  0  1   1   9  0.99757  1.10473  0.96125  0.85409  0.96124  0.88447  2.67904  2.67904  2.64390  1.22001  7.79326  0.86222 -7.04373 -0.39174
Na	0.1579164470	1.6853410194	2.9318826490
N	0.7282770198	-1.1636581093	0.0000000000
C	-0.5922112626	-1.1156867898	0.0000000000
N	-1.3718959745	-0.0488773419	0.0000000000
C	-0.6701074347	1.0707134247	0.0000000000
N	0.6436189854	1.2125354516	0.0000000000
C	1.2623187298	0.0449733600	0.0000000000
F	-1.3657122769	2.1821670884	0.0000000000
F	2.5726682765	0.0916579611	0.0000000000
F	-1.2069560368	-2.2738250452	0.0000000000
