10
1  1  1  1  0  1   1   9  1.45296  1.48028  1.35864  1.33132  1.35861  1.33497  2.46625  2.46625  2.44759  1.52916  5.62785  0.08644 -4.03507 -0.15006
Na	-0.1844224068	-1.9682221387	3.4239932878
N	0.7282770198	-1.1636581093	0.0000000000
C	-0.5922112626	-1.1156867898	0.0000000000
N	-1.3718959745	-0.0488773419	0.0000000000
C	-0.6701074347	1.0707134247	0.0000000000
N	0.6436189854	1.2125354516	0.0000000000
C	1.2623187298	0.0449733600	0.0000000000
F	-1.3657122769	2.1821670884	0.0000000000
F	2.5726682765	0.0916579611	0.0000000000
F	-1.2069560368	-2.2738250452	0.0000000000
