10
1  1  1  1  0  1   1   9 11.92903 12.74297 12.45761 11.64368 12.45759 11.95491 17.46666 17.46666 17.39049 13.90524 12.80529 18.93495 -15.64801 -2.18699
Na	0.1163594873	1.2418302248	2.1603345835
N	0.7282770198	-1.1636581093	0.0000000000
C	-0.5922112626	-1.1156867898	0.0000000000
N	-1.3718959745	-0.0488773419	0.0000000000
C	-0.6701074347	1.0707134247	0.0000000000
N	0.6436189854	1.2125354516	0.0000000000
C	1.2623187298	0.0449733600	0.0000000000
F	-1.3657122769	2.1821670884	0.0000000000
F	2.5726682765	0.0916579611	0.0000000000
F	-1.2069560368	-2.2738250452	0.0000000000
