10
1  1  1  1  0  1   1   9 15.72041 16.73370 16.41776 15.40447 16.41772 15.79547 22.04912 22.04913 21.96270 18.61718 10.58636 27.20994 -16.56001 -2.61910
Na	-1.1987623400	0.1123240228	2.0854120700
N	0.7282770198	-1.1636581093	0.0000000000
C	-0.5922112626	-1.1156867898	0.0000000000
N	-1.3718959745	-0.0488773419	0.0000000000
C	-0.6701074347	1.0707134247	0.0000000000
N	0.6436189854	1.2125354516	0.0000000000
C	1.2623187298	0.0449733600	0.0000000000
F	-1.3657122769	2.1821670884	0.0000000000
F	2.5726682765	0.0916579611	0.0000000000
F	-1.2069560368	-2.2738250452	0.0000000000
