10
1  1  1  1  0  1   1   9  1.00542  1.05025  0.93137  0.88654  0.93136  0.89462  2.15368  2.15368  2.12801  1.12055  6.06237  0.24015 -4.97210 -0.20987
Na	0.1745392309	1.8627453372	3.2405018753
N	0.7282770198	-1.1636581093	0.0000000000
C	-0.5922112626	-1.1156867898	0.0000000000
N	-1.3718959745	-0.0488773419	0.0000000000
C	-0.6701074347	1.0707134247	0.0000000000
N	0.6436189854	1.2125354516	0.0000000000
C	1.2623187298	0.0449733600	0.0000000000
F	-1.3657122769	2.1821670884	0.0000000000
F	2.5726682765	0.0916579611	0.0000000000
F	-1.2069560368	-2.2738250452	0.0000000000
