10
1  1  1  1  0  1   1   9  0.96496  1.03355  0.90264  0.83405  0.90262  0.85058  2.34517  2.34517  2.31578  1.12058  6.86956  0.45592 -5.92004 -0.28485
Na	0.1662278390	1.7740431783	3.0861922622
N	0.7282770198	-1.1636581093	0.0000000000
C	-0.5922112626	-1.1156867898	0.0000000000
N	-1.3718959745	-0.0488773419	0.0000000000
C	-0.6701074347	1.0707134247	0.0000000000
N	0.6436189854	1.2125354516	0.0000000000
C	1.2623187298	0.0449733600	0.0000000000
F	-1.3657122769	2.1821670884	0.0000000000
F	2.5726682765	0.0916579611	0.0000000000
F	-1.2069560368	-2.2738250452	0.0000000000
