10
1  1  1  1  0  1   1   9  1.53691  1.59764  1.43849  1.37776  1.43847  1.39523  3.03686  3.03686  3.01755  1.66563  7.52035  0.37710 -5.94239 -0.28942
Na	-0.1659801661	-1.7713999248	3.0815939590
N	0.7282770198	-1.1636581093	0.0000000000
C	-0.5922112626	-1.1156867898	0.0000000000
N	-1.3718959745	-0.0488773419	0.0000000000
C	-0.6701074347	1.0707134247	0.0000000000
N	0.6436189854	1.2125354516	0.0000000000
C	1.2623187298	0.0449733600	0.0000000000
F	-1.3657122769	2.1821670884	0.0000000000
F	2.5726682765	0.0916579611	0.0000000000
F	-1.2069560368	-2.2738250452	0.0000000000
