10
-1  1 -1  1  0  1   1   9 -6.48354 -4.75577 -4.86780 -6.59557 -4.86781 -5.92272  6.95695  6.95696  6.82409 -10.84588 -97.10430 146.74072 -41.80251 -18.67979
F	0.1002995965	1.0704333045	1.8621660521
N	0.7282770198	-1.1636581093	0.0000000000
C	-0.5922112626	-1.1156867898	0.0000000000
N	-1.3718959745	-0.0488773419	0.0000000000
C	-0.6701074347	1.0707134247	0.0000000000
N	0.6436189854	1.2125354516	0.0000000000
C	1.2623187298	0.0449733600	0.0000000000
F	-1.3657122769	2.1821670884	0.0000000000
F	2.5726682765	0.0916579611	0.0000000000
F	-1.2069560368	-2.2738250452	0.0000000000
