10
-1  1 -1  1  0  1   1   9 -24.94031 -24.22550 -23.34305 -24.05786 -23.34305 -23.77846 -20.63946 -20.63946 -20.69199 -30.11328 -41.58388 40.47334 -18.66172 -10.34101
F	0.0000000000	0.0000000000	2.3209091708
N	0.7282770198	-1.1636581093	0.0000000000
C	-0.5922112626	-1.1156867898	0.0000000000
N	-1.3718959745	-0.0488773419	0.0000000000
C	-0.6701074347	1.0707134247	0.0000000000
N	0.6436189854	1.2125354516	0.0000000000
C	1.2623187298	0.0449733600	0.0000000000
F	-1.3657122769	2.1821670884	0.0000000000
F	2.5726682765	0.0916579611	0.0000000000
F	-1.2069560368	-2.2738250452	0.0000000000
