10
-1  1 -1  1  0  1   1   9 -20.08078 -19.60936 -19.04725 -19.51867 -19.04730 -19.32690 -15.78772 -15.78772 -15.80453 -23.10703 -26.80055 26.88747 -16.09735 -7.09660
F	0.1316432204	1.4049437122	2.4440929433
N	0.7282770198	-1.1636581093	0.0000000000
C	-0.5922112626	-1.1156867898	0.0000000000
N	-1.3718959745	-0.0488773419	0.0000000000
C	-0.6701074347	1.0707134247	0.0000000000
N	0.6436189854	1.2125354516	0.0000000000
C	1.2623187298	0.0449733600	0.0000000000
F	-1.3657122769	2.1821670884	0.0000000000
F	2.5726682765	0.0916579611	0.0000000000
F	-1.2069560368	-2.2738250452	0.0000000000
