10
-1  1 -1  1  0  1   1   9 -25.31255 -24.46074 -23.67889 -24.53070 -23.67888 -24.20002 -19.64935 -19.64935 -19.71732 -28.97914 -47.89257 56.42883 -26.36958 -11.14582
F	1.2553919230	-0.1176302143	2.1839270232
N	0.7282770198	-1.1636581093	0.0000000000
C	-0.5922112626	-1.1156867898	0.0000000000
N	-1.3718959745	-0.0488773419	0.0000000000
C	-0.6701074347	1.0707134247	0.0000000000
N	0.6436189854	1.2125354516	0.0000000000
C	1.2623187298	0.0449733600	0.0000000000
F	-1.3657122769	2.1821670884	0.0000000000
F	2.5726682765	0.0916579611	0.0000000000
F	-1.2069560368	-2.2738250452	0.0000000000
