10
-1  1 -1  1  0  1   1   9 -18.46080 -17.73115 -17.32294 -18.05260 -17.32293 -17.76114 -11.64940 -11.64940 -11.68820 -21.55329 -39.35587 48.43351 -20.82098 -9.80995
F	-1.2957402507	0.1214108523	2.2541184922
N	0.7282770198	-1.1636581093	0.0000000000
C	-0.5922112626	-1.1156867898	0.0000000000
N	-1.3718959745	-0.0488773419	0.0000000000
C	-0.6701074347	1.0707134247	0.0000000000
N	0.6436189854	1.2125354516	0.0000000000
C	1.2623187298	0.0449733600	0.0000000000
F	-1.3657122769	2.1821670884	0.0000000000
F	2.5726682765	0.0916579611	0.0000000000
F	-1.2069560368	-2.2738250452	0.0000000000
