10
-1  1 -1  1  0  1   1   9 -12.30062 -10.13511 -9.92799 -12.09350 -9.92802 -11.24173 -0.73687 -0.73687 -0.88334 -22.44740 -127.32224 192.20374 -64.55069 -22.77821
F	1.0043135384	-0.0941041714	1.7471416186
N	0.7282770198	-1.1636581093	0.0000000000
C	-0.5922112626	-1.1156867898	0.0000000000
N	-1.3718959745	-0.0488773419	0.0000000000
C	-0.6701074347	1.0707134247	0.0000000000
N	0.6436189854	1.2125354516	0.0000000000
C	1.2623187298	0.0449733600	0.0000000000
F	-1.3657122769	2.1821670884	0.0000000000
F	2.5726682765	0.0916579611	0.0000000000
F	-1.2069560368	-2.2738250452	0.0000000000
