10
-1  1 -1  1  0  1   1   9 -21.45664 -21.01576 -20.35318 -20.79406 -20.35313 -20.61858 -17.87292 -17.87292 -17.89789 -24.40834 -25.90561 23.96013 -15.74753 -6.71533
F	-0.1335141576	-1.4249110253	2.4788288325
N	0.7282770198	-1.1636581093	0.0000000000
C	-0.5922112626	-1.1156867898	0.0000000000
N	-1.3718959745	-0.0488773419	0.0000000000
C	-0.6701074347	1.0707134247	0.0000000000
N	0.6436189854	1.2125354516	0.0000000000
C	1.2623187298	0.0449733600	0.0000000000
F	-1.3657122769	2.1821670884	0.0000000000
F	2.5726682765	0.0916579611	0.0000000000
F	-1.2069560368	-2.2738250452	0.0000000000
