10
-1  1 -1  1  0  1   1   9 -23.09293 -22.36173 -21.66770 -22.39890 -21.66770 -22.11349 -17.61430 -17.61430 -17.66896 -26.49667 -40.62743 46.39099 -22.38689 -9.87334
F	-0.1213765069	-1.2953736594	2.2534807569
N	0.7282770198	-1.1636581093	0.0000000000
C	-0.5922112626	-1.1156867898	0.0000000000
N	-1.3718959745	-0.0488773419	0.0000000000
C	-0.6701074347	1.0707134247	0.0000000000
N	0.6436189854	1.2125354516	0.0000000000
C	1.2623187298	0.0449733600	0.0000000000
F	-1.3657122769	2.1821670884	0.0000000000
F	2.5726682765	0.0916579611	0.0000000000
F	-1.2069560368	-2.2738250452	0.0000000000
