10
-1  1 -1  1  0  1   1   9 -18.95776 -18.40073 -17.93932 -18.49635 -17.93930 -18.26913 -13.58184 -13.58184 -13.60030 -22.02524 -30.47512 33.99527 -17.52954 -8.01585
F	-1.3639371060	0.1278008972	2.3727563076
N	0.7282770198	-1.1636581093	0.0000000000
C	-0.5922112626	-1.1156867898	0.0000000000
N	-1.3718959745	-0.0488773419	0.0000000000
C	-0.6701074347	1.0707134247	0.0000000000
N	0.6436189854	1.2125354516	0.0000000000
C	1.2623187298	0.0449733600	0.0000000000
F	-1.3657122769	2.1821670884	0.0000000000
F	2.5726682765	0.0916579611	0.0000000000
F	-1.2069560368	-2.2738250452	0.0000000000
