10
-1  1 -1  1  0  1   1   9 -23.17135 -21.80091 -21.18297 -22.55341 -21.18296 -22.01894 -14.85597 -14.85597 -14.95954 -28.31329 -77.13957 105.07473 -40.21912 -16.02933
F	1.1298527307	-0.1058671929	1.9655343209
N	0.7282770198	-1.1636581093	0.0000000000
C	-0.5922112626	-1.1156867898	0.0000000000
N	-1.3718959745	-0.0488773419	0.0000000000
C	-0.6701074347	1.0707134247	0.0000000000
N	0.6436189854	1.2125354516	0.0000000000
C	1.2623187298	0.0449733600	0.0000000000
F	-1.3657122769	2.1821670884	0.0000000000
F	2.5726682765	0.0916579611	0.0000000000
F	-1.2069560368	-2.2738250452	0.0000000000
