10
-1  1 -1  1  0  1   1   9 16.05537 19.41381 19.06530 15.70685 19.06524 17.02766 30.99159 30.99159 30.76401 -7.37734 -211.29451 341.11496 -105.53276 -31.66502
F	0.8787743461	-0.0823411500	1.5287489163
N	0.7282770198	-1.1636581093	0.0000000000
C	-0.5922112626	-1.1156867898	0.0000000000
N	-1.3718959745	-0.0488773419	0.0000000000
C	-0.6701074347	1.0707134247	0.0000000000
N	0.6436189854	1.2125354516	0.0000000000
C	1.2623187298	0.0449733600	0.0000000000
F	-1.3657122769	2.1821670884	0.0000000000
F	2.5726682765	0.0916579611	0.0000000000
F	-1.2069560368	-2.2738250452	0.0000000000
