10
-1  1 -1  1  0  1   1   9 -18.54574 -18.12318 -17.65001 -18.07257 -17.64999 -17.89561 -14.28183 -14.28183 -14.28495 -21.43757 -23.88833 23.78286 -14.83028 -6.50183
F	-1.4321339613	0.1341909420	2.4913941229
N	0.7282770198	-1.1636581093	0.0000000000
C	-0.5922112626	-1.1156867898	0.0000000000
N	-1.3718959745	-0.0488773419	0.0000000000
C	-0.6701074347	1.0707134247	0.0000000000
N	0.6436189854	1.2125354516	0.0000000000
C	1.2623187298	0.0449733600	0.0000000000
F	-1.3657122769	2.1821670884	0.0000000000
F	2.5726682765	0.0916579611	0.0000000000
F	-1.2069560368	-2.2738250452	0.0000000000
