10
-1  1 -1  1  0  1   1   9 -10.93762 -10.66146 -10.92021 -11.19637 -10.92019 -11.08025 -7.62304 -7.62304 -7.62396 -11.26083 -10.28132  7.80494 -5.03465 -3.74980
Cl	0.1751306627	1.8690573090	3.2514824188
N	0.7282770198	-1.1636581093	0.0000000000
C	-0.5922112626	-1.1156867898	0.0000000000
N	-1.3718959745	-0.0488773419	0.0000000000
C	-0.6701074347	1.0707134247	0.0000000000
N	0.6436189854	1.2125354516	0.0000000000
C	1.2623187298	0.0449733600	0.0000000000
F	-1.3657122769	2.1821670884	0.0000000000
F	2.5726682765	0.0916579611	0.0000000000
F	-1.2069560368	-2.2738250452	0.0000000000
