10
-1  1 -1  1  0  1   1   9  1.06435  2.76345  0.44536 -1.25374  0.44536 -0.55950 16.45554 16.45554 16.40205 -0.29393 -62.91048 96.42898 -17.96976 -15.84267
Cl	0.1273677547	1.3593144065	2.3647144864
N	0.7282770198	-1.1636581093	0.0000000000
C	-0.5922112626	-1.1156867898	0.0000000000
N	-1.3718959745	-0.0488773419	0.0000000000
C	-0.6701074347	1.0707134247	0.0000000000
N	0.6436189854	1.2125354516	0.0000000000
C	1.2623187298	0.0449733600	0.0000000000
F	-1.3657122769	2.1821670884	0.0000000000
F	2.5726682765	0.0916579611	0.0000000000
F	-1.2069560368	-2.2738250452	0.0000000000
