10
-1  1 -1  1  0  1   1   9 -9.47945 -8.57442 -9.76549 -10.67052 -9.76549 -10.30039 -0.36495 -0.36495 -0.39262 -9.71427 -30.44551 40.19977 -10.07233 -9.39621
Cl	-1.5399366896	0.1442920569	2.6789318052
N	0.7282770198	-1.1636581093	0.0000000000
C	-0.5922112626	-1.1156867898	0.0000000000
N	-1.3718959745	-0.0488773419	0.0000000000
C	-0.6701074347	1.0707134247	0.0000000000
N	0.6436189854	1.2125354516	0.0000000000
C	1.2623187298	0.0449733600	0.0000000000
F	-1.3657122769	2.1821670884	0.0000000000
F	2.5726682765	0.0916579611	0.0000000000
F	-1.2069560368	-2.2738250452	0.0000000000
