10
-1  1 -1  1  0  1   1   9 -11.73018 -11.35113 -11.73975 -12.11880 -11.73976 -11.96068 -7.47737 -7.47737 -7.48161 -12.07482 -13.21815 11.89082 -5.98213 -4.76535
Cl	0.1671701780	1.7841001585	3.1036877634
N	0.7282770198	-1.1636581093	0.0000000000
C	-0.5922112626	-1.1156867898	0.0000000000
N	-1.3718959745	-0.0488773419	0.0000000000
C	-0.6701074347	1.0707134247	0.0000000000
N	0.6436189854	1.2125354516	0.0000000000
C	1.2623187298	0.0449733600	0.0000000000
F	-1.3657122769	2.1821670884	0.0000000000
F	2.5726682765	0.0916579611	0.0000000000
F	-1.2069560368	-2.2738250452	0.0000000000
