10
-1  1 -1  1  0  1   1   9 -11.57783 -11.26984 -11.52229 -11.83028 -11.52230 -11.70288 -8.16570 -8.16570 -8.17168 -11.90290 -11.25573  8.67789 -5.31927 -4.00579
Cl	-0.1736284136	-1.8530247683	3.2235916078
N	0.7282770198	-1.1636581093	0.0000000000
C	-0.5922112626	-1.1156867898	0.0000000000
N	-1.3718959745	-0.0488773419	0.0000000000
C	-0.6701074347	1.0707134247	0.0000000000
N	0.6436189854	1.2125354516	0.0000000000
C	1.2623187298	0.0449733600	0.0000000000
F	-1.3657122769	2.1821670884	0.0000000000
F	2.5726682765	0.0916579611	0.0000000000
F	-1.2069560368	-2.2738250452	0.0000000000
