10
-1  1 -1  1  0  1   1   9 -11.99094 -11.65806 -11.90599 -12.23887 -11.90601 -12.10224 -8.51309 -8.51309 -8.52208 -12.31384 -11.99048  9.40356 -5.53645 -4.19047
Cl	1.8432003502	-0.1727078597	3.2065006794
N	0.7282770198	-1.1636581093	0.0000000000
C	-0.5922112626	-1.1156867898	0.0000000000
N	-1.3718959745	-0.0488773419	0.0000000000
C	-0.6701074347	1.0707134247	0.0000000000
N	0.6436189854	1.2125354516	0.0000000000
C	1.2623187298	0.0449733600	0.0000000000
F	-1.3657122769	2.1821670884	0.0000000000
F	2.5726682765	0.0916579611	0.0000000000
F	-1.2069560368	-2.2738250452	0.0000000000
