10
-1  1 -1  1  0  1   1   9 -10.11687 -9.17068 -10.35562 -11.30181 -10.35563 -10.91286 -0.99847 -0.99847 -1.02269 -10.52150 -31.95947 41.98338 -10.77389 -9.77152
Cl	0.1432887240	1.5292287073	2.6603037972
N	0.7282770198	-1.1636581093	0.0000000000
C	-0.5922112626	-1.1156867898	0.0000000000
N	-1.3718959745	-0.0488773419	0.0000000000
C	-0.6701074347	1.0707134247	0.0000000000
N	0.6436189854	1.2125354516	0.0000000000
C	1.2623187298	0.0449733600	0.0000000000
F	-1.3657122769	2.1821670884	0.0000000000
F	2.5726682765	0.0916579611	0.0000000000
F	-1.2069560368	-2.2738250452	0.0000000000
