10
-1  1 -1  1  0  1   1   9 -11.78579 -11.08384 -11.91422 -12.61616 -11.91423 -12.32638 -4.73563 -4.73563 -4.75067 -12.13877 -23.33766 27.59762 -8.70763 -7.69109
Cl	0.1512492087	1.6141858577	2.8080984526
N	0.7282770198	-1.1636581093	0.0000000000
C	-0.5922112626	-1.1156867898	0.0000000000
N	-1.3718959745	-0.0488773419	0.0000000000
C	-0.6701074347	1.0707134247	0.0000000000
N	0.6436189854	1.2125354516	0.0000000000
C	1.2623187298	0.0449733600	0.0000000000
F	-1.3657122769	2.1821670884	0.0000000000
F	2.5726682765	0.0916579611	0.0000000000
F	-1.2069560368	-2.2738250452	0.0000000000
