10
-1  1 -1  1  0  1   1   9 29.94144 33.17565 29.02929 25.79508 29.02931 27.09400 54.35222 54.35222 54.19691 19.71211 -133.22553 222.88065 -43.04415 -26.89887
Cl	-0.1104908087	-1.1791975798	2.0513764777
N	0.7282770198	-1.1636581093	0.0000000000
C	-0.5922112626	-1.1156867898	0.0000000000
N	-1.3718959745	-0.0488773419	0.0000000000
C	-0.6701074347	1.0707134247	0.0000000000
N	0.6436189854	1.2125354516	0.0000000000
C	1.2623187298	0.0449733600	0.0000000000
F	-1.3657122769	2.1821670884	0.0000000000
F	2.5726682765	0.0916579611	0.0000000000
F	-1.2069560368	-2.2738250452	0.0000000000
