10
-1  1 -1  1  0  1   1   9 -11.18894 -10.52293 -11.35615 -12.02216 -11.35615 -11.74739 -4.18622 -4.18622 -4.20093 -11.46472 -22.09892 26.24616 -8.23510 -7.37685
Cl	-1.6254887279	0.1523082823	2.8277613500
N	0.7282770198	-1.1636581093	0.0000000000
C	-0.5922112626	-1.1156867898	0.0000000000
N	-1.3718959745	-0.0488773419	0.0000000000
C	-0.6701074347	1.0707134247	0.0000000000
N	0.6436189854	1.2125354516	0.0000000000
C	1.2623187298	0.0449733600	0.0000000000
F	-1.3657122769	2.1821670884	0.0000000000
F	2.5726682765	0.0916579611	0.0000000000
F	-1.2069560368	-2.2738250452	0.0000000000
