10
-1  1 -1  1  0  1   1   9 -10.94279 -9.94030 -11.12243 -12.12492 -11.12241 -11.70901 -1.83677 -1.83677 -1.85343 -11.61815 -34.21380 44.84704 -11.95900 -10.29239
Cl	-0.1420596112	-1.5161111740	2.6374840427
N	0.7282770198	-1.1636581093	0.0000000000
C	-0.5922112626	-1.1156867898	0.0000000000
N	-1.3718959745	-0.0488773419	0.0000000000
C	-0.6701074347	1.0707134247	0.0000000000
N	0.6436189854	1.2125354516	0.0000000000
C	1.2623187298	0.0449733600	0.0000000000
F	-1.3657122769	2.1821670884	0.0000000000
F	2.5726682765	0.0916579611	0.0000000000
F	-1.2069560368	-2.2738250452	0.0000000000
