12
1  1  1  1  0  1   1  11 -20.53102 -20.16769 -20.10614 -20.46947 -20.12339 -20.33149 -20.79639 -20.80596 -20.82498 -19.55292 -5.17350  7.10671 -20.99900 -0.48713
Li	1.3029381375	-0.0613580886	2.2592584793
N	-1.3553261681	0.0633453506	-0.0013755856
C	-0.6059676298	1.1743581664	-0.0013755856
H	-1.1479921096	2.1115258372	0.0011250061
C	0.7854031744	1.1594549474	-0.0011027895
H	1.3358702020	2.0891264593	-0.0011027895
C	1.4408409147	-0.0673548109	0.0003701858
H	2.5207406789	-0.1178471169	0.0017315969
C	0.6738226460	-1.2276490185	0.0020638537
H	1.1351721854	-2.2046220416	0.0045585040
C	-0.7128852426	-1.1127121934	0.0016491855
H	-1.3399543597	-1.9952173123	0.0065225395
