12
1  1  1  1  0  1   1  11 -14.21811 -13.71163 -13.84017 -14.34664 -13.85708 -14.15014 -13.28057 -13.28906 -13.31285 -12.84736 -6.48461  7.12433 -12.46109 -1.02599
Na	0.0689672027	1.4689702187	2.5471346681
N	-1.3553261681	0.0633453506	-0.0013755856
C	-0.6059676298	1.1743581664	-0.0013755856
H	-1.1479921096	2.1115258372	0.0011250061
C	0.7854031744	1.1594549474	-0.0011027895
H	1.3358702020	2.0891264593	-0.0011027895
C	1.4408409147	-0.0673548109	0.0003701858
H	2.5207406789	-0.1178471169	0.0017315969
C	0.6738226460	-1.2276490185	0.0020638537
H	1.1351721854	-2.2046220416	0.0045585040
C	-0.7128852426	-1.1127121934	0.0016491855
H	-1.3399543597	-1.9952173123	0.0065225395
