12
-1  1 -1  1  0  1   1  11 -3.89889 -3.77412 -4.06829 -4.19306 -4.09747 -4.15910 -1.68805 -1.69441 -1.70951 -4.24179 -1.08097  2.46596 -3.60393 -2.02286
Cl	2.1496873692	-0.1012332852	3.7274980882
N	-1.3553261681	0.0633453506	-0.0013755856
C	-0.6059676298	1.1743581664	-0.0013755856
H	-1.1479921096	2.1115258372	0.0011250061
C	0.7854031744	1.1594549474	-0.0011027895
H	1.3358702020	2.0891264593	-0.0011027895
C	1.4408409147	-0.0673548109	0.0003701858
H	2.5207406789	-0.1178471169	0.0017315969
C	0.6738226460	-1.2276490185	0.0020638537
H	1.1351721854	-2.2046220416	0.0045585040
C	-0.7128852426	-1.1127121934	0.0016491855
H	-1.3399543597	-1.9952173123	0.0065225395
